version 2
run General-0-20190320-13:52:37-25669
attr configname General
attr datetime 20190320-13:52:37
attr experiment General
attr inifile ex1.ini
attr iterationvars ""
attr iterationvarsf ""
attr measurement ""
attr network ex1
attr processid 25669
attr repetition 0
attr replication #0
attr resultdir results
attr runnumber 0
attr seedset 0
param **.client.numApps 1
param **.client.app[*].typename "\"VoipStreamReceiver\""
param **.client.app[*].localPort 1000
param **.client.app[*].resultFile "\"results/results.wav\""
param **.server.numApps 1
param **.server.app[*].typename "\"VoipStreamSender\""
param **.server.app[0].packetTimeLength 20ms
param **.server.app[0].voipHeaderSize 4B
param **.server.app[0].samplingRate 8000Hz
param **.server.app[0].compressedBitRate 40000bps
param **.server.app[0].voipSilenceThreshold 100
param **.server.app[0].repeatCount 1
param **.server.app[0].traceFileName "\"results/VoIPtrace.wav\""
param **.server.app[0].soundFile "\"../../soundFiles/husten.mp3\""
param **.server.app[0].localPort 1000
param **.server.app[0].destPort 1000
param **.server.app[0].srcAddress "\"\""
param **.server.app[0].destAddress "\"client\""
param **.tcp.mss 1024
param **.tcp.advertisedWindow 14336
param **.tcp.recordStats true

vector 0 ex1.server.app[0] packetSent:vector(packetBytes) ETV
attr interpolationmode none
attr source packetSent
attr title "packets sent, vector(packetBytes)"
vector 1 ex1.server.udp packetSent:vector(packetBytes) ETV
attr interpolationmode none
attr source packetSent
attr title "packets sent, vector(packetBytes)"
vector 2 ex1.server.ipv4.arp arpRequestSent:vector(packetBytes) ETV
attr source arpRequestSent
attr title "ARP request sent, vector(packetBytes)"
vector 3 ex1.server.eth[0].encap encapPk:vector(packetBytes) ETV
attr interpolationmode none
attr source encapPk
attr title "packets encapsulated, vector(packetBytes)"
vector 4 ex1.server.eth[0].mac packetReceivedFromUpper:vector(packetBytes) ETV
attr interpolationmode none
attr source packetReceivedFromUpper
attr title "packet bytes from higher layer, vector(packetBytes)"
vector 5 ex1.server.eth[0].mac txPk:vector(packetBytes) ETV
attr interpolationmode none
attr source packetSentToLower
attr title "packets transmitted, vector(packetBytes)"
vector 6 ex1.switch2.eth[1].mac rxPkOk:vector(packetBytes) ETV
attr interpolationmode none
attr source rxPkOk
attr title "packets received OK, vector(packetBytes)"
vector 7 ex1.switch2.eth[1].mac passedUpPk:vector(packetBytes) ETV
attr interpolationmode none
attr source packetSentToUpper
attr title "packets passed to higher layer, vector(packetBytes)"
vector 8 ex1.switch2.eth[0].mac packetReceivedFromUpper:vector(packetBytes) ETV
attr interpolationmode none
attr source packetReceivedFromUpper
attr title "packet bytes from higher layer, vector(packetBytes)"
vector 9 ex1.switch2.eth[0].mac txPk:vector(packetBytes) ETV
attr interpolationmode none
attr source packetSentToLower
attr title "packets transmitted, vector(packetBytes)"
vector 10 ex1.router1.eth[1].mac rxPkOk:vector(packetBytes) ETV
attr interpolationmode none
attr source rxPkOk
attr title "packets received OK, vector(packetBytes)"
vector 11 ex1.router1.eth[1].mac passedUpPk:vector(packetBytes) ETV
attr interpolationmode none
attr source packetSentToUpper
attr title "packets passed to higher layer, vector(packetBytes)"
vector 12 ex1.router1.eth[1].encap decapPk:vector(packetBytes) ETV
attr interpolationmode none
attr source decapPk
attr title "packets decapsulated, vector(packetBytes)"
vector 13 ex1.router1.ipv4.arp arpReplySent:vector(packetBytes) ETV
attr source arpReplySent
attr title "ARP replies sent, vector(packetBytes)"
vector 14 ex1.router1.eth[1].encap encapPk:vector(packetBytes) ETV
attr interpolationmode none
attr source encapPk
attr title "packets encapsulated, vector(packetBytes)"
vector 15 ex1.router1.eth[1].mac packetReceivedFromUpper:vector(packetBytes) ETV
attr interpolationmode none
attr source packetReceivedFromUpper
attr title "packet bytes from higher layer, vector(packetBytes)"
vector 16 ex1.router1.eth[1].mac txPk:vector(packetBytes) ETV
attr interpolationmode none
attr source packetSentToLower
attr title "packets transmitted, vector(packetBytes)"
vector 17 ex1.switch2.eth[0].mac rxPkOk:vector(packetBytes) ETV
attr interpolationmode none
attr source rxPkOk
attr title "packets received OK, vector(packetBytes)"
vector 18 ex1.switch2.eth[0].mac passedUpPk:vector(packetBytes) ETV
attr interpolationmode none
attr source packetSentToUpper
attr title "packets passed to higher layer, vector(packetBytes)"
vector 19 ex1.switch2.eth[1].mac packetReceivedFromUpper:vector(packetBytes) ETV
attr interpolationmode none
attr source packetReceivedFromUpper
attr title "packet bytes from higher layer, vector(packetBytes)"
vector 20 ex1.switch2.eth[1].mac txPk:vector(packetBytes) ETV
attr interpolationmode none
attr source packetSentToLower
attr title "packets transmitted, vector(packetBytes)"
vector 21 ex1.server.eth[0].mac rxPkOk:vector(packetBytes) ETV
attr interpolationmode none
attr source rxPkOk
attr title "packets received OK, vector(packetBytes)"
vector 22 ex1.server.eth[0].mac passedUpPk:vector(packetBytes) ETV
attr interpolationmode none
attr source packetSentToUpper
attr title "packets passed to higher layer, vector(packetBytes)"
vector 23 ex1.server.eth[0].encap decapPk:vector(packetBytes) ETV
attr interpolationmode none
attr source decapPk
attr title "packets decapsulated, vector(packetBytes)"
vector 24 ex1.router1.ipv4.arp arpRequestSent:vector(packetBytes) ETV
attr source arpRequestSent
attr title "ARP request sent, vector(packetBytes)"
vector 25 ex1.router1.eth[0].encap encapPk:vector(packetBytes) ETV
attr interpolationmode none
attr source encapPk
attr title "packets encapsulated, vector(packetBytes)"
vector 26 ex1.router1.eth[0].mac packetReceivedFromUpper:vector(packetBytes) ETV
attr interpolationmode none
attr source packetReceivedFromUpper
attr title "packet bytes from higher layer, vector(packetBytes)"
vector 27 ex1.router1.eth[0].mac txPk:vector(packetBytes) ETV
attr interpolationmode none
attr source packetSentToLower
attr title "packets transmitted, vector(packetBytes)"
vector 28 ex1.switch.eth[1].mac rxPkOk:vector(packetBytes) ETV
attr interpolationmode none
attr source rxPkOk
attr title "packets received OK, vector(packetBytes)"
vector 29 ex1.switch.eth[1].mac passedUpPk:vector(packetBytes) ETV
attr interpolationmode none
attr source packetSentToUpper
attr title "packets passed to higher layer, vector(packetBytes)"
vector 30 ex1.switch.eth[0].mac packetReceivedFromUpper:vector(packetBytes) ETV
attr interpolationmode none
attr source packetReceivedFromUpper
attr title "packet bytes from higher layer, vector(packetBytes)"
vector 31 ex1.switch.eth[0].mac txPk:vector(packetBytes) ETV
attr interpolationmode none
attr source packetSentToLower
attr title "packets transmitted, vector(packetBytes)"
vector 32 ex1.client.eth[0].mac rxPkOk:vector(packetBytes) ETV
attr interpolationmode none
attr source rxPkOk
attr title "packets received OK, vector(packetBytes)"
vector 33 ex1.client.eth[0].mac passedUpPk:vector(packetBytes) ETV
attr interpolationmode none
attr source packetSentToUpper
attr title "packets passed to higher layer, vector(packetBytes)"
vector 34 ex1.client.eth[0].encap decapPk:vector(packetBytes) ETV
attr interpolationmode none
attr source decapPk
attr title "packets decapsulated, vector(packetBytes)"
vector 35 ex1.client.ipv4.arp arpReplySent:vector(packetBytes) ETV
attr source arpReplySent
attr title "ARP replies sent, vector(packetBytes)"
vector 36 ex1.client.eth[0].encap encapPk:vector(packetBytes) ETV
attr interpolationmode none
attr source encapPk
attr title "packets encapsulated, vector(packetBytes)"
vector 37 ex1.client.eth[0].mac packetReceivedFromUpper:vector(packetBytes) ETV
attr interpolationmode none
attr source packetReceivedFromUpper
attr title "packet bytes from higher layer, vector(packetBytes)"
vector 38 ex1.client.eth[0].mac txPk:vector(packetBytes) ETV
attr interpolationmode none
attr source packetSentToLower
attr title "packets transmitted, vector(packetBytes)"
vector 39 ex1.switch.eth[0].mac rxPkOk:vector(packetBytes) ETV
attr interpolationmode none
attr source rxPkOk
attr title "packets received OK, vector(packetBytes)"
vector 40 ex1.switch.eth[0].mac passedUpPk:vector(packetBytes) ETV
attr interpolationmode none
attr source packetSentToUpper
attr title "packets passed to higher layer, vector(packetBytes)"
vector 41 ex1.switch.eth[1].mac packetReceivedFromUpper:vector(packetBytes) ETV
attr interpolationmode none
attr source packetReceivedFromUpper
attr title "packet bytes from higher layer, vector(packetBytes)"
vector 42 ex1.switch.eth[1].mac txPk:vector(packetBytes) ETV
attr interpolationmode none
attr source packetSentToLower
attr title "packets transmitted, vector(packetBytes)"
vector 43 ex1.router1.eth[0].mac rxPkOk:vector(packetBytes) ETV
attr interpolationmode none
attr source rxPkOk
attr title "packets received OK, vector(packetBytes)"
vector 44 ex1.router1.eth[0].mac passedUpPk:vector(packetBytes) ETV
attr interpolationmode none
attr source packetSentToUpper
attr title "packets passed to higher layer, vector(packetBytes)"
vector 45 ex1.router1.eth[0].encap decapPk:vector(packetBytes) ETV
attr interpolationmode none
attr source decapPk
attr title "packets decapsulated, vector(packetBytes)"
vector 46 ex1.client.udp packetReceived:vector(packetBytes) ETV
attr interpolationmode none
attr source packetReceived
attr title "packets received, vector(packetBytes)"
vector 47 ex1.client.udp passedUpPk:vector(count) ETV
attr interpolationmode none
attr source packetSentToUpper
attr title "packets passed up, vector(count)"
vector 48 ex1.client.app[0] numActiveSessions:vector ETV
attr "" ""
attr interpolationmode sample-hold
attr source sum(connState)
attr title "number of active sessions, vector"
vector 49 ex1.client.app[0] packetReceived:vector(packetBytes) ETV
attr interpolationmode none
attr source packetReceived
attr title "packets received, vector(packetBytes)"
vector 50 ex1.client.app[0] packetHasVoice:vector ETV
attr interpolationmode none
attr title "voice or silence packet, vector"
vector 51 ex1.client.app[0] delay:vector ETV
attr interpolationmode none
attr title "delay, vector"
attr unit s
0	4	0.02	4
0	94	0.04	4
0	128	0.06	4
0	162	0.08	4
0	196	0.1	4
0	230	0.12	4
0	264	0.14	4
1	6	0.02	12
1	96	0.04	12
1	130	0.06	12
1	164	0.08	12
1	198	0.1	12
1	232	0.12	12
1	266	0.14	12
2	7	0.02	28
3	8	0.02	28
3	36	0.02024304	32
3	98	0.04	32
3	132	0.06	32
3	166	0.08	32
3	200	0.1	32
3	234	0.12	32
3	268	0.14	32
4	9	0.02	64
4	37	0.02024304	64
4	99	0.04	64
4	133	0.06	64
4	167	0.08	64
4	201	0.1	64
4	235	0.12	64
4	269	0.14	64
5	10	0.02000576	64
5	38	0.0202488	64
5	100	0.04000576	64
5	134	0.06000576	64
5	168	0.08000576	64
5	202	0.10000576	64
5	236	0.12000576	64
5	270	0.14000576	64
6	13	0.02010576	64
6	41	0.0203488	64
6	103	0.04010576	64
6	137	0.06010576	64
6	171	0.08010576	64
6	205	0.10010576	64
6	239	0.12010576	64
6	273	0.14010576	64
7	13	0.02010576	64
7	41	0.0203488	64
7	103	0.04010576	64
7	137	0.06010576	64
7	171	0.08010576	64
7	205	0.10010576	64
7	239	0.12010576	64
7	273	0.14010576	64
8	15	0.02010576	64
8	43	0.0203488	64
8	105	0.04010576	64
8	139	0.06010576	64
8	173	0.08010576	64
8	207	0.10010576	64
8	241	0.12010576	64
8	275	0.14010576	64
9	17	0.02011152	64
9	45	0.02035456	64
9	107	0.04011152	64
9	141	0.06011152	64
9	175	0.08011152	64
9	209	0.10011152	64
9	243	0.12011152	64
10	19	0.02012152	64
10	47	0.02036456	64
10	109	0.04012152	64
10	143	0.06012152	64
10	177	0.08012152	64
10	211	0.10012152	64
10	245	0.12012152	64
11	19	0.02012152	64
11	47	0.02036456	64
11	109	0.04012152	64
11	143	0.06012152	64
11	177	0.08012152	64
11	211	0.10012152	64
11	245	0.12012152	64
12	20	0.02012152	46
12	48	0.02036456	46
12	110	0.04012152	46
12	144	0.06012152	46
12	178	0.08012152	46
12	212	0.10012152	46
12	246	0.12012152	46
13	21	0.02012152	28
14	22	0.02012152	28
15	23	0.02012152	64
16	24	0.02012728	64
17	27	0.02013728	64
18	27	0.02013728	64
19	29	0.02013728	64
20	31	0.02014304	64
21	33	0.02024304	64
22	33	0.02024304	64
23	34	0.02024304	46
24	49	0.02036456	28
25	50	0.02036456	28
25	78	0.0207876	32
25	112	0.04012152	32
25	146	0.06012152	32
25	180	0.08012152	32
25	214	0.10012152	32
25	248	0.12012152	32
26	51	0.02036456	64
26	79	0.0207876	64
26	113	0.04012152	64
26	147	0.06012152	64
26	181	0.08012152	64
26	215	0.10012152	64
26	249	0.12012152	64
27	52	0.02037032	64
27	80	0.02079336	64
27	114	0.04012728	64
27	148	0.06012728	64
27	182	0.08012728	64
27	216	0.10012728	64
27	250	0.12012728	64
28	55	0.02047032	64
28	83	0.02089336	64
28	117	0.04022728	64
28	151	0.06022728	64
28	185	0.08022728	64
28	219	0.10022728	64
28	253	0.12022728	64
29	55	0.02047032	64
29	83	0.02089336	64
29	117	0.04022728	64
29	151	0.06022728	64
29	185	0.08022728	64
29	219	0.10022728	64
29	253	0.12022728	64
30	57	0.02047032	64
30	85	0.02089336	64
30	119	0.04022728	64
30	153	0.06022728	64
30	187	0.08022728	64
30	221	0.10022728	64
30	255	0.12022728	64
31	59	0.02047608	64
31	87	0.02089912	64
31	121	0.04023304	64
31	155	0.06023304	64
31	189	0.08023304	64
31	223	0.10023304	64
31	257	0.12023304	64
32	61	0.02057608	64
32	89	0.02099912	64
32	123	0.04033304	64
32	157	0.06033304	64
32	191	0.08033304	64
32	225	0.10033304	64
32	259	0.12033304	64
33	61	0.02057608	64
33	89	0.02099912	64
33	123	0.04033304	64
33	157	0.06033304	64
33	191	0.08033304	64
33	225	0.10033304	64
33	259	0.12033304	64
34	62	0.02057608	46
34	90	0.02099912	46
34	124	0.04033304	46
34	158	0.06033304	46
34	192	0.08033304	46
34	226	0.10033304	46
34	260	0.12033304	46
35	63	0.02057608	28
36	64	0.02057608	28
37	65	0.02057608	64
38	66	0.02058184	64
39	69	0.02068184	64
40	69	0.02068184	64
41	71	0.02068184	64
42	73	0.0206876	64
43	75	0.0207876	64
44	75	0.0207876	64
45	76	0.0207876	46
46	92	0.02099912	12
46	126	0.04033304	12
46	160	0.06033304	12
46	194	0.08033304	12
46	228	0.10033304	12
46	262	0.12033304	12
47	92	0.02099912	1
47	126	0.04033304	2
47	160	0.06033304	3
47	194	0.08033304	4
47	228	0.10033304	5
47	262	0.12033304	6
48	93	0.02099912	1
49	93	0.02099912	4
49	127	0.04033304	4
49	161	0.06033304	4
49	195	0.08033304	4
49	229	0.10033304	4
49	263	0.12033304	4
50	93	0.02099912	0
50	127	0.04033304	0
50	161	0.06033304	0
50	195	0.08033304	0
50	229	0.10033304	0
50	263	0.12033304	0
51	93	0.02099912	0.04099912
51	127	0.04033304	0.04099912
51	161	0.06033304	0.04099912
51	195	0.08033304	0.04099912
51	229	0.10033304	0.04099912
51	263	0.12033304	0.04099912
0	298	0.16	4
0	332	0.18	4
0	366	0.2	4
0	400	0.22	4
0	434	0.24	4
0	468	0.26	4
0	502	0.28	104
0	536	0.3	104
0	570	0.32	104
0	604	0.34	104
0	638	0.36	104
0	672	0.38	104
0	706	0.4	104
0	740	0.42	104
0	774	0.44	104
0	808	0.46	104
0	842	0.48	104
0	876	0.5	4
0	910	0.52	4
0	944	0.54	104
0	978	0.56	4
0	1012	0.58	104
0	1046	0.6	4
0	1080	0.62	4
0	1114	0.64	4
0	1148	0.66	4
0	1182	0.68	4
0	1216	0.7	4
0	1250	0.72	4
0	1284	0.74	4
0	1318	0.76	104
0	1352	0.78	104
0	1386	0.8	104
0	1420	0.82	104
0	1454	0.84	104
0	1488	0.86	104
0	1522	0.88	104
0	1556	0.9	104
0	1590	0.92	104
0	1624	0.94	104
0	1658	0.96	104
0	1692	0.98	104
0	1726	1	104
0	1760	1.02	104
0	1794	1.04	104
0	1828	1.06	104
0	1862	1.08	104
0	1896	1.1	104
0	1930	1.12	104
0	1964	1.14	104
0	1998	1.16	104
0	2032	1.18	104
0	2066	1.2	104
0	2100	1.22	104
0	2134	1.24	104
0	2168	1.26	104
0	2202	1.28	104
0	2236	1.3	104
0	2270	1.32	104
0	2304	1.34	104
0	2338	1.36	104
0	2372	1.38	104
0	2406	1.4	104
0	2440	1.42	104
0	2474	1.44	104
0	2508	1.46	104
0	2542	1.48	104
0	2576	1.5	104
0	2610	1.52	4
0	2644	1.54	4
0	2678	1.56	104
0	2712	1.58	104
0	2746	1.6	104
0	2780	1.62	104
0	2814	1.64	104
0	2848	1.66	104
0	2882	1.68	104
0	2916	1.7	104
0	2950	1.72	104
0	2984	1.74	104
0	3018	1.76	104
0	3052	1.78	104
0	3086	1.8	104
0	3120	1.82	104
0	3154	1.84	104
0	3188	1.86	104
0	3222	1.88	104
0	3256	1.9	104
0	3290	1.92	104
0	3324	1.94	104
0	3358	1.96	104
0	3392	1.98	104
0	3426	2	104
0	3460	2.02	104
0	3494	2.04	104
0	3528	2.06	104
0	3562	2.08	104
0	3596	2.1	104
0	3630	2.12	104
0	3664	2.14	104
0	3698	2.16	104
0	3732	2.18	104
0	3766	2.2	104
0	3800	2.22	104
0	3834	2.24	104
0	3868	2.26	104
0	3902	2.28	104
0	3936	2.3	104
0	3970	2.32	104
0	4004	2.34	104
0	4038	2.36	104
0	4072	2.38	104
0	4106	2.4	104
0	4140	2.42	104
0	4174	2.44	104
0	4208	2.46	104
0	4242	2.48	104
0	4276	2.5	104
0	4310	2.52	104
0	4344	2.54	104
0	4378	2.56	104
0	4412	2.58	104
0	4446	2.6	104
0	4480	2.62	104
0	4514	2.64	104
0	4548	2.66	4
0	4582	2.68	4
0	4616	2.7	4
0	4650	2.72	4
0	4684	2.74	4
0	4718	2.76	4
0	4752	2.78	4
0	4786	2.8	4
0	4820	2.82	4
0	4854	2.84	4
0	4888	2.86	4
0	4922	2.88	4
0	4956	2.9	4
0	4990	2.92	4
0	5024	2.94	4
0	5058	2.96	4
0	5092	2.98	4
0	5126	3	4
0	5160	3.02	4
0	5194	3.04	4
0	5228	3.06	104
0	5262	3.08	104
0	5296	3.1	4
0	5330	3.12	104
0	5364	3.14	104
0	5398	3.16	104
0	5432	3.18	104
0	5466	3.2	104
0	5500	3.22	104
0	5534	3.24	4
0	5568	3.26	104
0	5602	3.28	4
0	5636	3.3	4
0	5670	3.32	4
0	5704	3.34	4
0	5738	3.36	4
0	5772	3.38	4
0	5806	3.4	104
0	5840	3.42	104
0	5874	3.44	104
0	5908	3.46	104
0	5942	3.48	104
0	5976	3.5	104
0	6010	3.52	104
0	6044	3.54	104
0	6078	3.56	104
0	6112	3.58	104
0	6146	3.6	104
0	6180	3.62	104
0	6214	3.64	104
0	6248	3.66	104
0	6282	3.68	104
0	6316	3.7	104
0	6350	3.72	104
0	6384	3.74	104
0	6418	3.76	104
0	6452	3.78	104
0	6486	3.8	104
0	6520	3.82	104
0	6554	3.84	104
0	6588	3.86	104
0	6622	3.88	104
0	6656	3.9	104
0	6690	3.92	104
0	6724	3.94	104
0	6758	3.96	104
0	6792	3.98	104
0	6826	4	104
0	6860	4.02	104
0	6894	4.04	104
0	6928	4.06	104
0	6962	4.08	104
0	6996	4.1	104
0	7030	4.12	104
0	7064	4.14	104
0	7098	4.16	104
0	7132	4.18	104
0	7166	4.2	104
0	7200	4.22	104
0	7234	4.24	104
0	7268	4.26	104
0	7302	4.28	104
0	7336	4.3	104
0	7370	4.32	104
0	7404	4.34	104
0	7438	4.36	4
0	7472	4.38	104
0	7506	4.4	104
0	7540	4.42	104
0	7574	4.44	104
0	7608	4.46	104
0	7642	4.48	104
0	7676	4.5	104
0	7710	4.52	104
0	7744	4.54	104
0	7778	4.56	104
0	7812	4.58	104
0	7846	4.6	104
0	7880	4.62	104
0	7914	4.64	104
0	7948	4.66	104
0	7982	4.68	104
0	8016	4.7	104
0	8050	4.72	104
0	8084	4.74	104
0	8118	4.76	104
0	8152	4.78	104
0	8186	4.8	104
0	8220	4.82	104
0	8254	4.84	104
0	8288	4.86	104
0	8322	4.88	104
0	8356	4.9	104
0	8390	4.92	104
0	8424	4.94	104
0	8458	4.96	104
0	8492	4.98	104
0	8526	5	104
0	8560	5.02	104
0	8594	5.04	104
0	8628	5.06	104
0	8662	5.08	104
0	8696	5.1	104
0	8730	5.12	104
0	8764	5.14	104
0	8798	5.16	104
0	8832	5.18	104
0	8866	5.2	104
0	8900	5.22	104
0	8934	5.24	104
0	8968	5.26	104
0	9002	5.28	104
0	9036	5.3	104
0	9070	5.32	104
0	9104	5.34	104
0	9138	5.36	104
0	9172	5.38	104
0	9206	5.4	104
0	9240	5.42	104
0	9274	5.44	104
0	9308	5.46	104
0	9342	5.48	104
0	9376	5.5	104
0	9410	5.52	104
0	9444	5.54	104
0	9478	5.56	104
0	9512	5.58	104
0	9546	5.6	104
0	9580	5.62	104
0	9614	5.64	4
0	9648	5.66	4
0	9682	5.68	4
0	9716	5.7	4
0	9750	5.72	4
0	9784	5.74	104
0	9818	5.76	104
0	9852	5.78	4
0	9886	5.8	4
0	9920	5.82	4
0	9954	5.84	104
0	9988	5.86	104
0	10022	5.88	104
0	10056	5.9	104
0	10090	5.92	104
0	10124	5.94	104
0	10158	5.96	104
0	10192	5.98	104
0	10226	6	104
0	10260	6.02	104
0	10294	6.04	104
0	10328	6.06	104
0	10362	6.08	104
0	10396	6.1	104
0	10430	6.12	104
0	10464	6.14	4
0	10498	6.16	4
0	10532	6.18	4
0	10566	6.2	4
0	10600	6.22	4
0	10634	6.24	104
0	10668	6.26	104
0	10702	6.28	104
0	10736	6.3	104
0	10770	6.32	104
0	10804	6.34	104
0	10838	6.36	104
0	10872	6.38	104
0	10906	6.4	104
0	10940	6.42	104
0	10974	6.44	104
0	11008	6.46	104
0	11042	6.48	104
0	11076	6.5	104
0	11110	6.52	104
0	11144	6.54	104
0	11178	6.56	104
0	11212	6.58	104
0	11246	6.6	104
0	11280	6.62	104
0	11314	6.64	104
0	11348	6.66	104
0	11382	6.68	104
0	11416	6.7	104
0	11450	6.72	104
0	11484	6.74	104
0	11518	6.76	104
0	11552	6.78	104
0	11586	6.8	104
0	11620	6.82	104
0	11654	6.84	104
0	11688	6.86	104
0	11722	6.88	104
0	11756	6.9	104
0	11790	6.92	104
0	11824	6.94	104
0	11858	6.96	104
0	11892	6.98	104
0	11926	7	104
0	11960	7.02	104
0	11994	7.04	104
0	12028	7.06	104
0	12062	7.08	4
0	12096	7.1	4
0	12130	7.12	4
0	12164	7.14	4
0	12198	7.16	4
0	12232	7.18	104
0	12266	7.2	104
0	12300	7.22	104
0	12334	7.24	104
0	12368	7.26	104
0	12402	7.28	104
0	12436	7.3	104
0	12470	7.32	104
0	12504	7.34	104
0	12538	7.36	104
0	12572	7.38	104
0	12606	7.4	104
0	12640	7.42	104
0	12674	7.44	104
0	12708	7.46	4
0	12742	7.48	4
0	12776	7.5	4
0	12810	7.52	4
0	12844	7.54	4
0	12878	7.56	4
0	12912	7.58	4
0	12946	7.6	4
0	12980	7.62	4
0	13014	7.64	104
0	13048	7.66	4
0	13082	7.68	4
0	13116	7.7	4
0	13150	7.72	4
0	13184	7.74	4
0	13218	7.76	4
0	13252	7.78	104
0	13286	7.8	104
0	13320	7.82	104
0	13354	7.84	4
0	13388	7.86	4
0	13422	7.88	4
0	13456	7.9	4
0	13490	7.92	4
0	13524	7.94	4
0	13558	7.96	4
0	13592	7.98	4
0	13626	8	4
0	13660	8.02	4
0	13694	8.04	4
0	13728	8.06	4
0	13762	8.08	4
0	13796	8.1	4
0	13830	8.12	4
0	13864	8.14	4
0	13898	8.16	4
0	13932	8.18	104
0	13966	8.2	4
0	14000	8.22	4
0	14034	8.24	4
0	14068	8.26	4
0	14102	8.28	104
0	14136	8.3	104
0	14170	8.32	104
0	14204	8.34	4
0	14238	8.36	104
0	14272	8.38	104
0	14306	8.4	104
0	14340	8.42	4
0	14374	8.44	4
0	14408	8.46	4
0	14442	8.48	4
0	14476	8.5	4
0	14510	8.52	104
0	14544	8.54	104
0	14578	8.56	104
0	14612	8.58	104
0	14646	8.6	4
0	14680	8.62	4
0	14714	8.64	4
0	14748	8.66	4
0	14782	8.68	4
0	14816	8.7	104
0	14850	8.72	104
0	14884	8.74	104
0	14918	8.76	104
0	14952	8.78	104
0	14986	8.8	104
0	15020	8.82	104
0	15054	8.84	104
0	15088	8.86	104
0	15122	8.88	104
0	15156	8.9	104
0	15190	8.92	104
0	15224	8.94	104
0	15258	8.96	104
0	15292	8.98	104
0	15326	9	104
0	15360	9.02	104
0	15394	9.04	104
0	15428	9.06	4
0	15462	9.08	4
0	15496	9.1	104
0	15530	9.12	4
0	15564	9.14	4
0	15598	9.16	4
0	15632	9.18	4
0	15666	9.2	4
0	15700	9.22	4
0	15734	9.24	4
0	15768	9.26	4
0	15802	9.28	4
0	15836	9.3	4
0	15870	9.32	4
0	15904	9.34	4
0	15938	9.36	4
0	15972	9.38	4
0	16006	9.4	4
0	16040	9.42	4
0	16074	9.44	104
0	16108	9.46	104
0	16142	9.48	4
0	16176	9.5	4
0	16210	9.52	4
0	16244	9.54	4
0	16278	9.56	104
0	16312	9.58	4
0	16346	9.6	4
0	16380	9.62	4
0	16414	9.64	4
0	16448	9.66	4
0	16482	9.68	4
0	16516	9.7	4
0	16550	9.72	4
0	16584	9.74	4
0	16618	9.76	4
0	16652	9.78	4
0	16686	9.8	4
0	16720	9.82	4
0	16754	9.84	4
0	16788	9.86	4
0	16822	9.88	4
0	16856	9.9	4
0	16890	9.92	4
0	16924	9.94	4
0	16958	9.96	4
0	16992	9.98	4
0	17026	10	4
0	17060	10.02	4
0	17094	10.04	4
0	17128	10.06	4
0	17162	10.08	4
0	17196	10.1	4
0	17230	10.12	4
0	17264	10.14	4
0	17298	10.16	4
0	17332	10.18	4
0	17366	10.2	4
0	17400	10.22	4
0	17434	10.24	104
0	17468	10.26	104
0	17502	10.28	104
0	17536	10.3	104
0	17570	10.32	104
0	17604	10.34	104
0	17638	10.36	104
0	17672	10.38	104
0	17706	10.4	104
0	17740	10.42	104
0	17774	10.44	104
0	17808	10.46	104
0	17842	10.48	104
0	17876	10.5	104
0	17910	10.52	104
0	17944	10.54	104
0	17978	10.56	104
0	18012	10.58	4
0	18046	10.6	104
0	18080	10.62	104
0	18114	10.64	104
0	18148	10.66	104
0	18182	10.68	104
0	18216	10.7	104
0	18250	10.72	104
0	18284	10.74	104
0	18318	10.76	104
0	18352	10.78	104
0	18386	10.8	104
0	18420	10.82	104
0	18454	10.84	104
0	18488	10.86	104
0	18522	10.88	104
0	18556	10.9	104
0	18590	10.92	104
0	18624	10.94	104
0	18658	10.96	104
0	18692	10.98	104
0	18726	11	4
0	18760	11.02	4
0	18794	11.04	104
0	18828	11.06	104
0	18862	11.08	104
0	18896	11.1	104
0	18930	11.12	4
0	18964	11.14	4
0	18998	11.16	104
0	19032	11.18	104
0	19066	11.2	4
0	19100	11.22	104
0	19134	11.24	104
0	19168	11.26	104
0	19202	11.28	104
0	19236	11.3	104
0	19270	11.32	104
0	19304	11.34	104
0	19338	11.36	104
0	19372	11.38	104
0	19406	11.4	104
0	19440	11.42	104
0	19474	11.44	104
0	19508	11.46	104
0	19542	11.48	104
0	19576	11.5	104
0	19610	11.52	104
0	19644	11.54	104
0	19678	11.56	104
0	19712	11.58	104
0	19746	11.6	104
0	19780	11.62	104
0	19814	11.64	104
0	19848	11.66	104
0	19882	11.68	104
0	19916	11.7	104
0	19950	11.72	104
0	19984	11.74	104
0	20018	11.76	104
0	20052	11.78	104
0	20086	11.8	104
0	20120	11.82	104
0	20154	11.84	104
0	20188	11.86	104
0	20222	11.88	104
0	20256	11.9	104
0	20290	11.92	104
0	20324	11.94	104
0	20358	11.96	104
0	20392	11.98	4
0	20426	12	4
0	20460	12.02	4
0	20494	12.04	104
0	20528	12.06	4
0	20562	12.08	4
0	20596	12.1	104
0	20630	12.12	104
0	20664	12.14	104
0	20698	12.16	104
0	20732	12.18	104
0	20766	12.2	104
0	20800	12.22	104
0	20834	12.24	104
0	20868	12.26	104
0	20902	12.28	104
0	20936	12.3	104
0	20970	12.32	104
0	21004	12.34	104
0	21038	12.36	104
0	21072	12.38	104
0	21106	12.4	104
0	21140	12.42	104
0	21174	12.44	104
0	21208	12.46	104
0	21242	12.48	104
0	21276	12.5	104
0	21310	12.52	104
0	21344	12.54	104
0	21378	12.56	104
0	21412	12.58	104
0	21446	12.6	104
0	21480	12.62	104
0	21514	12.64	104
0	21548	12.66	104
0	21582	12.68	104
0	21616	12.7	104
0	21650	12.72	104
0	21684	12.74	104
0	21718	12.76	104
0	21752	12.78	104
0	21786	12.8	104
0	21820	12.82	104
0	21854	12.84	104
0	21888	12.86	104
0	21922	12.88	104
0	21956	12.9	104
0	21990	12.92	104
0	22024	12.94	104
0	22058	12.96	104
0	22092	12.98	104
0	22126	13	104
0	22160	13.02	104
0	22194	13.04	104
0	22228	13.06	104
0	22262	13.08	104
0	22296	13.1	104
0	22330	13.12	4
0	22364	13.14	4
0	22398	13.16	4
0	22432	13.18	4
0	22466	13.2	4
0	22500	13.22	4
0	22534	13.24	4
0	22568	13.26	4
0	22602	13.28	4
0	22636	13.3	4
0	22670	13.32	4
0	22704	13.34	104
0	22738	13.36	104
0	22772	13.38	104
0	22806	13.4	104
0	22840	13.42	104
0	22874	13.44	104
0	22908	13.46	104
0	22942	13.48	104
0	22976	13.5	4
0	23010	13.52	4
0	23044	13.54	4
0	23078	13.56	4
0	23112	13.58	4
0	23146	13.6	4
0	23180	13.62	4
0	23214	13.64	4
0	23248	13.66	4
0	23282	13.68	4
0	23316	13.7	4
0	23350	13.72	4
0	23384	13.74	4
0	23418	13.76	104
0	23452	13.78	104
0	23486	13.8	104
0	23520	13.82	104
0	23554	13.84	104
0	23588	13.86	104
0	23622	13.88	104
0	23656	13.9	104
0	23690	13.92	104
0	23724	13.94	104
0	23758	13.96	104
0	23792	13.98	104
0	23826	14	104
0	23860	14.02	104
0	23894	14.04	104
0	23928	14.06	104
0	23962	14.08	104
0	23996	14.1	104
0	24030	14.12	104
0	24064	14.14	104
0	24098	14.16	104
0	24132	14.18	104
0	24166	14.2	104
0	24200	14.22	104
0	24234	14.24	104
0	24268	14.26	104
0	24302	14.28	104
0	24336	14.3	104
0	24370	14.32	104
0	24404	14.34	104
0	24438	14.36	104
0	24472	14.38	104
0	24506	14.4	104
0	24540	14.42	104
0	24574	14.44	104
0	24608	14.46	104
0	24642	14.48	104
0	24676	14.5	104
0	24710	14.52	104
0	24744	14.54	104
0	24778	14.56	104
0	24812	14.58	104
0	24846	14.6	104
0	24880	14.62	104
0	24914	14.64	104
0	24948	14.66	104
0	24982	14.68	104
0	25016	14.7	104
0	25050	14.72	104
0	25084	14.74	104
0	25118	14.76	104
0	25152	14.78	104
0	25186	14.8	104
0	25220	14.82	104
0	25254	14.84	104
0	25288	14.86	104
0	25322	14.88	104
0	25356	14.9	104
0	25390	14.92	104
0	25424	14.94	104
0	25458	14.96	104
0	25492	14.98	104
0	25526	15	104
0	25560	15.02	104
0	25594	15.04	104
0	25628	15.06	104
0	25662	15.08	4
0	25696	15.1	4
0	25730	15.12	4
0	25764	15.14	4
0	25798	15.16	104
0	25832	15.18	104
0	25866	15.2	104
0	25900	15.22	104
0	25934	15.24	104
0	25968	15.26	104
0	26002	15.28	104
0	26036	15.3	104
0	26070	15.32	104
0	26104	15.34	104
0	26138	15.36	104
0	26172	15.38	104
0	26206	15.4	4
0	26240	15.42	4
0	26274	15.44	4
0	26308	15.46	4
0	26342	15.48	4
0	26376	15.5	4
0	26410	15.52	104
0	26444	15.54	4
0	26478	15.56	104
0	26512	15.58	4
0	26546	15.6	4
0	26580	15.62	4
0	26614	15.64	4
0	26648	15.66	4
0	26682	15.68	4
0	26716	15.7	4
0	26750	15.72	4
0	26784	15.74	4
0	26818	15.76	104
0	26852	15.78	4
0	26886	15.8	4
0	26920	15.82	104
0	26954	15.84	4
0	26988	15.86	4
0	27022	15.88	4
0	27056	15.9	4
0	27090	15.92	4
0	27124	15.94	4
0	27158	15.96	4
0	27192	15.98	4
0	27226	16	4
0	27260	16.02	4
0	27294	16.04	4
0	27328	16.06	104
0	27362	16.08	4
0	27396	16.1	4
0	27430	16.12	4
0	27464	16.14	4
0	27498	16.16	4
0	27532	16.18	4
0	27566	16.2	4
0	27600	16.22	4
0	27634	16.24	4
0	27668	16.26	4
0	27702	16.28	4
0	27736	16.3	4
0	27770	16.32	4
0	27804	16.34	4
0	27838	16.36	4
0	27872	16.38	4
0	27906	16.4	4
0	27940	16.42	4
0	27974	16.44	4
0	28008	16.46	4
0	28042	16.48	104
0	28076	16.5	104
0	28110	16.52	104
0	28144	16.54	104
0	28178	16.56	104
0	28212	16.58	4
0	28246	16.6	104
0	28280	16.62	104
0	28314	16.64	104
0	28348	16.66	104
0	28382	16.68	104
0	28416	16.7	104
0	28450	16.72	4
0	28484	16.74	104
0	28518	16.76	104
0	28552	16.78	104
0	28586	16.8	104
0	28620	16.82	4
0	28654	16.84	4
0	28688	16.86	4
0	28722	16.88	104
0	28756	16.9	4
0	28790	16.92	4
0	28824	16.94	4
0	28858	16.96	4
0	28892	16.98	4
0	28926	17	4
0	28960	17.02	4
0	28994	17.04	4
0	29028	17.06	4
0	29062	17.08	4
0	29096	17.1	4
0	29130	17.12	104
0	29164	17.14	4
0	29198	17.16	4
0	29232	17.18	4
0	29266	17.2	4
0	29300	17.22	4
0	29334	17.24	4
0	29368	17.26	4
0	29402	17.28	4
0	29436	17.3	4
0	29470	17.32	4
0	29504	17.34	104
0	29538	17.36	104
0	29572	17.38	104
0	29606	17.4	104
0	29640	17.42	104
0	29674	17.44	4
0	29708	17.46	4
0	29742	17.48	4
0	29776	17.5	4
0	29810	17.52	4
0	29844	17.54	104
0	29878	17.56	104
0	29912	17.58	4
0	29946	17.6	4
0	29980	17.62	104
0	30014	17.64	104
0	30048	17.66	104
0	30082	17.68	104
0	30116	17.7	104
0	30150	17.72	104
0	30184	17.74	104
0	30218	17.76	104
0	30252	17.78	104
0	30286	17.8	104
0	30320	17.82	104
0	30354	17.84	104
0	30388	17.86	104
0	30422	17.88	104
0	30456	17.9	104
0	30490	17.92	104
0	30524	17.94	104
0	30558	17.96	104
0	30592	17.98	104
0	30626	18	104
0	30660	18.02	104
0	30694	18.04	104
0	30728	18.06	104
0	30762	18.08	104
0	30796	18.1	104
0	30830	18.12	104
0	30864	18.14	104
0	30898	18.16	104
0	30932	18.18	104
0	30966	18.2	104
0	31000	18.22	104
0	31034	18.24	104
0	31068	18.26	104
0	31102	18.28	104
0	31136	18.3	104
0	31170	18.32	104
0	31204	18.34	104
0	31238	18.36	104
0	31272	18.38	104
0	31306	18.4	104
0	31340	18.42	104
0	31374	18.44	104
0	31408	18.46	104
0	31442	18.48	104
0	31476	18.5	104
0	31510	18.52	104
0	31544	18.54	104
0	31578	18.56	104
0	31612	18.58	104
0	31646	18.6	104
0	31680	18.62	104
0	31714	18.64	104
0	31748	18.66	104
0	31782	18.68	104
0	31816	18.7	104
0	31850	18.72	104
0	31884	18.74	104
0	31918	18.76	104
0	31952	18.78	104
0	31986	18.8	104
0	32020	18.82	104
0	32054	18.84	104
0	32088	18.86	104
0	32122	18.88	104
0	32156	18.9	104
0	32190	18.92	104
0	32224	18.94	104
0	32258	18.96	104
0	32292	18.98	104
0	32326	19	104
0	32360	19.02	104
0	32394	19.04	104
0	32428	19.06	104
0	32462	19.08	104
0	32496	19.1	104
0	32530	19.12	104
0	32564	19.14	104
0	32598	19.16	4
0	32632	19.18	104
0	32666	19.2	104
0	32700	19.22	104
0	32734	19.24	104
0	32768	19.26	104
0	32802	19.28	104
0	32836	19.3	104
0	32870	19.32	104
0	32904	19.34	104
0	32938	19.36	104
0	32972	19.38	104
0	33006	19.4	104
0	33040	19.42	104
0	33074	19.44	104
0	33108	19.46	104
0	33142	19.48	104
0	33176	19.5	104
0	33210	19.52	104
0	33244	19.54	104
0	33278	19.56	104
0	33312	19.58	104
0	33346	19.6	104
0	33380	19.62	104
0	33414	19.64	104
0	33448	19.66	104
0	33482	19.68	104
0	33516	19.7	104
0	33550	19.72	104
0	33584	19.74	104
0	33618	19.76	104
0	33652	19.78	104
0	33686	19.8	4
0	33720	19.82	4
0	33754	19.84	4
0	33788	19.86	4
0	33822	19.88	4
0	33856	19.9	4
0	33890	19.92	4
0	33924	19.94	4
0	33958	19.96	4
0	33992	19.98	4
0	34026	20	4
0	34060	20.02	4
0	34094	20.04	4
0	34128	20.06	104
0	34162	20.08	104
0	34196	20.1	104
0	34230	20.12	104
0	34264	20.14	104
0	34298	20.16	104
0	34332	20.18	104
0	34366	20.2	104
0	34400	20.22	104
0	34434	20.24	4
0	34468	20.26	104
0	34502	20.28	4
0	34536	20.3	104
0	34570	20.32	104
0	34604	20.34	4
0	34638	20.36	4
0	34672	20.38	104
0	34706	20.4	104
0	34740	20.42	104
0	34774	20.44	104
0	34808	20.46	104
0	34842	20.48	104
0	34876	20.5	104
0	34910	20.52	104
0	34944	20.54	104
0	34978	20.56	104
0	35012	20.58	104
0	35046	20.6	104
0	35080	20.62	104
0	35114	20.64	104
0	35148	20.66	104
0	35182	20.68	104
0	35216	20.7	104
0	35250	20.72	104
0	35284	20.74	104
0	35318	20.76	104
0	35352	20.78	104
0	35386	20.8	104
0	35420	20.82	104
0	35454	20.84	104
0	35488	20.86	104
0	35522	20.88	104
0	35556	20.9	104
0	35590	20.92	104
0	35624	20.94	104
0	35658	20.96	104
0	35692	20.98	104
0	35726	21	104
0	35760	21.02	104
0	35794	21.04	104
0	35828	21.06	104
0	35862	21.08	104
0	35896	21.1	104
0	35930	21.12	104
0	35964	21.14	104
0	35998	21.16	104
0	36032	21.18	104
0	36066	21.2	104
0	36100	21.22	104
0	36134	21.24	104
0	36168	21.26	104
0	36202	21.28	104
0	36236	21.3	104
0	36270	21.32	104
0	36304	21.34	104
0	36338	21.36	104
0	36372	21.38	104
0	36406	21.4	104
0	36440	21.42	104
0	36474	21.44	104
0	36508	21.46	104
0	36542	21.48	104
0	36576	21.5	104
0	36610	21.52	104
0	36644	21.54	104
0	36678	21.56	104
0	36712	21.58	104
0	36746	21.6	104
0	36780	21.62	104
0	36814	21.64	104
0	36848	21.66	104
0	36882	21.68	104
0	36916	21.7	104
0	36950	21.72	104
0	36984	21.74	104
0	37018	21.76	104
0	37052	21.78	104
0	37086	21.8	104
0	37120	21.82	104
0	37154	21.84	104
0	37188	21.86	4
0	37222	21.88	4
0	37256	21.9	4
0	37290	21.92	4
0	37324	21.94	4
0	37358	21.96	4
0	37392	21.98	4
0	37426	22	4
0	37460	22.02	4
0	37494	22.04	4
0	37528	22.06	4
0	37562	22.08	4
0	37596	22.1	4
0	37630	22.12	4
0	37664	22.14	4
0	37698	22.16	4
0	37732	22.18	4
0	37766	22.2	4
0	37800	22.22	4
0	37834	22.24	4
0	37868	22.26	4
0	37902	22.28	4
0	37936	22.3	4
0	37970	22.32	4
0	38004	22.34	4
0	38038	22.36	4
0	38072	22.38	4
0	38106	22.4	4
0	38140	22.42	4
0	38174	22.44	4
0	38208	22.46	4
0	38242	22.48	4
0	38276	22.5	4
0	38310	22.52	4
0	38344	22.54	4
0	38378	22.56	4
0	38412	22.58	4
0	38446	22.6	4
0	38480	22.62	4
0	38514	22.64	4
0	38548	22.66	4
0	38582	22.68	4
0	38616	22.7	4
0	38650	22.72	4
0	38684	22.74	4
0	38718	22.76	4
0	38752	22.78	4
0	38786	22.8	4
0	38820	22.82	4
0	38854	22.84	4
0	38888	22.86	4
0	38922	22.88	4
0	38956	22.9	4
0	38990	22.92	4
0	39024	22.94	4
0	39058	22.96	4
0	39092	22.98	4
0	39126	23	4
0	39160	23.02	4
0	39194	23.04	4
0	39228	23.06	4
0	39262	23.08	4
0	39296	23.1	4
0	39330	23.12	4
0	39364	23.14	4
0	39398	23.16	4
0	39432	23.18	4
0	39466	23.2	4
0	39500	23.22	4
0	39534	23.24	4
0	39568	23.26	4
0	39602	23.28	104
0	39636	23.3	104
0	39670	23.32	104
0	39704	23.34	104
0	39738	23.36	4
0	39772	23.38	104
0	39806	23.4	104
0	39840	23.42	104
0	39874	23.44	104
0	39908	23.46	104
0	39942	23.48	104
0	39976	23.5	104
0	40010	23.52	104
0	40044	23.54	104
0	40078	23.56	104
0	40112	23.58	104
0	40146	23.6	104
0	40180	23.62	104
0	40214	23.64	104
0	40248	23.66	104
0	40282	23.68	104
0	40316	23.7	104
0	40350	23.72	104
0	40384	23.74	104
0	40418	23.76	104
0	40452	23.78	104
0	40486	23.8	104
0	40520	23.82	104
0	40554	23.84	104
0	40588	23.86	104
0	40622	23.88	104
0	40656	23.9	104
0	40690	23.92	104
0	40724	23.94	104
0	40758	23.96	104
0	40792	23.98	104
0	40826	24	104
0	40860	24.02	104
0	40894	24.04	104
0	40928	24.06	104
0	40962	24.08	104
0	40996	24.1	104
0	41030	24.12	104
0	41064	24.14	104
0	41098	24.16	104
0	41132	24.18	104
0	41166	24.2	104
0	41200	24.22	104
0	41234	24.24	104
0	41268	24.26	104
0	41302	24.28	4
0	41336	24.3	104
0	41370	24.32	4
0	41404	24.34	4
0	41438	24.36	4
0	41472	24.38	4
0	41506	24.4	4
0	41540	24.42	4
0	41574	24.44	4
0	41608	24.46	4
0	41642	24.48	4
0	41676	24.5	4
0	41710	24.52	4
0	41744	24.54	4
1	300	0.16	12
1	334	0.18	12
1	368	0.2	12
1	402	0.22	12
1	436	0.24	12
1	470	0.26	12
1	504	0.28	112
1	538	0.3	112
1	572	0.32	112
1	606	0.34	112
1	640	0.36	112
1	674	0.38	112
1	708	0.4	112
1	742	0.42	112
1	776	0.44	112
1	810	0.46	112
1	844	0.48	112
1	878	0.5	12
1	912	0.52	12
1	946	0.54	112
1	980	0.56	12
1	1014	0.58	112
1	1048	0.6	12
1	1082	0.62	12
1	1116	0.64	12
1	1150	0.66	12
1	1184	0.68	12
1	1218	0.7	12
1	1252	0.72	12
1	1286	0.74	12
1	1320	0.76	112
1	1354	0.78	112
1	1388	0.8	112
1	1422	0.82	112
1	1456	0.84	112
1	1490	0.86	112
1	1524	0.88	112
1	1558	0.9	112
1	1592	0.92	112
1	1626	0.94	112
1	1660	0.96	112
1	1694	0.98	112
1	1728	1	112
1	1762	1.02	112
1	1796	1.04	112
1	1830	1.06	112
1	1864	1.08	112
1	1898	1.1	112
1	1932	1.12	112
1	1966	1.14	112
1	2000	1.16	112
1	2034	1.18	112
1	2068	1.2	112
1	2102	1.22	112
1	2136	1.24	112
1	2170	1.26	112
1	2204	1.28	112
1	2238	1.3	112
1	2272	1.32	112
1	2306	1.34	112
1	2340	1.36	112
1	2374	1.38	112
1	2408	1.4	112
1	2442	1.42	112
1	2476	1.44	112
1	2510	1.46	112
1	2544	1.48	112
1	2578	1.5	112
1	2612	1.52	12
1	2646	1.54	12
1	2680	1.56	112
1	2714	1.58	112
1	2748	1.6	112
1	2782	1.62	112
1	2816	1.64	112
1	2850	1.66	112
1	2884	1.68	112
1	2918	1.7	112
1	2952	1.72	112
1	2986	1.74	112
1	3020	1.76	112
1	3054	1.78	112
1	3088	1.8	112
1	3122	1.82	112
1	3156	1.84	112
1	3190	1.86	112
1	3224	1.88	112
1	3258	1.9	112
1	3292	1.92	112
1	3326	1.94	112
1	3360	1.96	112
1	3394	1.98	112
1	3428	2	112
1	3462	2.02	112
1	3496	2.04	112
1	3530	2.06	112
1	3564	2.08	112
1	3598	2.1	112
1	3632	2.12	112
1	3666	2.14	112
1	3700	2.16	112
1	3734	2.18	112
1	3768	2.2	112
1	3802	2.22	112
1	3836	2.24	112
1	3870	2.26	112
1	3904	2.28	112
1	3938	2.3	112
1	3972	2.32	112
1	4006	2.34	112
1	4040	2.36	112
1	4074	2.38	112
1	4108	2.4	112
1	4142	2.42	112
1	4176	2.44	112
1	4210	2.46	112
1	4244	2.48	112
1	4278	2.5	112
1	4312	2.52	112
1	4346	2.54	112
1	4380	2.56	112
1	4414	2.58	112
1	4448	2.6	112
1	4482	2.62	112
1	4516	2.64	112
1	4550	2.66	12
1	4584	2.68	12
1	4618	2.7	12
1	4652	2.72	12
1	4686	2.74	12
1	4720	2.76	12
1	4754	2.78	12
1	4788	2.8	12
1	4822	2.82	12
1	4856	2.84	12
1	4890	2.86	12
1	4924	2.88	12
1	4958	2.9	12
1	4992	2.92	12
1	5026	2.94	12
1	5060	2.96	12
1	5094	2.98	12
1	5128	3	12
1	5162	3.02	12
1	5196	3.04	12
1	5230	3.06	112
1	5264	3.08	112
1	5298	3.1	12
1	5332	3.12	112
1	5366	3.14	112
1	5400	3.16	112
1	5434	3.18	112
1	5468	3.2	112
1	5502	3.22	112
1	5536	3.24	12
1	5570	3.26	112
1	5604	3.28	12
1	5638	3.3	12
1	5672	3.32	12
1	5706	3.34	12
1	5740	3.36	12
1	5774	3.38	12
1	5808	3.4	112
1	5842	3.42	112
1	5876	3.44	112
1	5910	3.46	112
1	5944	3.48	112
1	5978	3.5	112
1	6012	3.52	112
1	6046	3.54	112
1	6080	3.56	112
1	6114	3.58	112
1	6148	3.6	112
1	6182	3.62	112
1	6216	3.64	112
1	6250	3.66	112
1	6284	3.68	112
1	6318	3.7	112
1	6352	3.72	112
1	6386	3.74	112
1	6420	3.76	112
1	6454	3.78	112
1	6488	3.8	112
1	6522	3.82	112
1	6556	3.84	112
1	6590	3.86	112
1	6624	3.88	112
1	6658	3.9	112
1	6692	3.92	112
1	6726	3.94	112
1	6760	3.96	112
1	6794	3.98	112
1	6828	4	112
1	6862	4.02	112
1	6896	4.04	112
1	6930	4.06	112
1	6964	4.08	112
1	6998	4.1	112
1	7032	4.12	112
1	7066	4.14	112
1	7100	4.16	112
1	7134	4.18	112
1	7168	4.2	112
1	7202	4.22	112
1	7236	4.24	112
1	7270	4.26	112
1	7304	4.28	112
1	7338	4.3	112
1	7372	4.32	112
1	7406	4.34	112
1	7440	4.36	12
1	7474	4.38	112
1	7508	4.4	112
1	7542	4.42	112
1	7576	4.44	112
1	7610	4.46	112
1	7644	4.48	112
1	7678	4.5	112
1	7712	4.52	112
1	7746	4.54	112
1	7780	4.56	112
1	7814	4.58	112
1	7848	4.6	112
1	7882	4.62	112
1	7916	4.64	112
1	7950	4.66	112
1	7984	4.68	112
1	8018	4.7	112
1	8052	4.72	112
1	8086	4.74	112
1	8120	4.76	112
1	8154	4.78	112
1	8188	4.8	112
1	8222	4.82	112
1	8256	4.84	112
1	8290	4.86	112
1	8324	4.88	112
1	8358	4.9	112
1	8392	4.92	112
1	8426	4.94	112
1	8460	4.96	112
1	8494	4.98	112
1	8528	5	112
1	8562	5.02	112
1	8596	5.04	112
1	8630	5.06	112
1	8664	5.08	112
1	8698	5.1	112
1	8732	5.12	112
1	8766	5.14	112
1	8800	5.16	112
1	8834	5.18	112
1	8868	5.2	112
1	8902	5.22	112
1	8936	5.24	112
1	8970	5.26	112
1	9004	5.28	112
1	9038	5.3	112
1	9072	5.32	112
1	9106	5.34	112
1	9140	5.36	112
1	9174	5.38	112
1	9208	5.4	112
1	9242	5.42	112
1	9276	5.44	112
1	9310	5.46	112
1	9344	5.48	112
1	9378	5.5	112
1	9412	5.52	112
1	9446	5.54	112
1	9480	5.56	112
1	9514	5.58	112
1	9548	5.6	112
1	9582	5.62	112
1	9616	5.64	12
1	9650	5.66	12
1	9684	5.68	12
1	9718	5.7	12
1	9752	5.72	12
1	9786	5.74	112
1	9820	5.76	112
1	9854	5.78	12
1	9888	5.8	12
1	9922	5.82	12
1	9956	5.84	112
1	9990	5.86	112
1	10024	5.88	112
1	10058	5.9	112
1	10092	5.92	112
1	10126	5.94	112
1	10160	5.96	112
1	10194	5.98	112
1	10228	6	112
1	10262	6.02	112
1	10296	6.04	112
1	10330	6.06	112
1	10364	6.08	112
1	10398	6.1	112
1	10432	6.12	112
1	10466	6.14	12
1	10500	6.16	12
1	10534	6.18	12
1	10568	6.2	12
1	10602	6.22	12
1	10636	6.24	112
1	10670	6.26	112
1	10704	6.28	112
1	10738	6.3	112
1	10772	6.32	112
1	10806	6.34	112
1	10840	6.36	112
1	10874	6.38	112
1	10908	6.4	112
1	10942	6.42	112
1	10976	6.44	112
1	11010	6.46	112
1	11044	6.48	112
1	11078	6.5	112
1	11112	6.52	112
1	11146	6.54	112
1	11180	6.56	112
1	11214	6.58	112
1	11248	6.6	112
1	11282	6.62	112
1	11316	6.64	112
1	11350	6.66	112
1	11384	6.68	112
1	11418	6.7	112
1	11452	6.72	112
1	11486	6.74	112
1	11520	6.76	112
1	11554	6.78	112
1	11588	6.8	112
1	11622	6.82	112
1	11656	6.84	112
1	11690	6.86	112
1	11724	6.88	112
1	11758	6.9	112
1	11792	6.92	112
1	11826	6.94	112
1	11860	6.96	112
1	11894	6.98	112
1	11928	7	112
1	11962	7.02	112
1	11996	7.04	112
1	12030	7.06	112
1	12064	7.08	12
1	12098	7.1	12
1	12132	7.12	12
1	12166	7.14	12
1	12200	7.16	12
1	12234	7.18	112
1	12268	7.2	112
1	12302	7.22	112
1	12336	7.24	112
1	12370	7.26	112
1	12404	7.28	112
1	12438	7.3	112
1	12472	7.32	112
1	12506	7.34	112
1	12540	7.36	112
1	12574	7.38	112
1	12608	7.4	112
1	12642	7.42	112
1	12676	7.44	112
1	12710	7.46	12
1	12744	7.48	12
1	12778	7.5	12
1	12812	7.52	12
1	12846	7.54	12
1	12880	7.56	12
1	12914	7.58	12
1	12948	7.6	12
1	12982	7.62	12
1	13016	7.64	112
1	13050	7.66	12
1	13084	7.68	12
1	13118	7.7	12
1	13152	7.72	12
1	13186	7.74	12
1	13220	7.76	12
1	13254	7.78	112
1	13288	7.8	112
1	13322	7.82	112
1	13356	7.84	12
1	13390	7.86	12
1	13424	7.88	12
1	13458	7.9	12
1	13492	7.92	12
1	13526	7.94	12
1	13560	7.96	12
1	13594	7.98	12
1	13628	8	12
1	13662	8.02	12
1	13696	8.04	12
1	13730	8.06	12
1	13764	8.08	12
1	13798	8.1	12
1	13832	8.12	12
1	13866	8.14	12
1	13900	8.16	12
1	13934	8.18	112
1	13968	8.2	12
1	14002	8.22	12
1	14036	8.24	12
1	14070	8.26	12
1	14104	8.28	112
1	14138	8.3	112
1	14172	8.32	112
1	14206	8.34	12
1	14240	8.36	112
1	14274	8.38	112
1	14308	8.4	112
1	14342	8.42	12
1	14376	8.44	12
1	14410	8.46	12
1	14444	8.48	12
1	14478	8.5	12
1	14512	8.52	112
1	14546	8.54	112
1	14580	8.56	112
1	14614	8.58	112
1	14648	8.6	12
1	14682	8.62	12
1	14716	8.64	12
1	14750	8.66	12
1	14784	8.68	12
1	14818	8.7	112
1	14852	8.72	112
1	14886	8.74	112
1	14920	8.76	112
1	14954	8.78	112
1	14988	8.8	112
1	15022	8.82	112
1	15056	8.84	112
1	15090	8.86	112
1	15124	8.88	112
1	15158	8.9	112
1	15192	8.92	112
1	15226	8.94	112
1	15260	8.96	112
1	15294	8.98	112
1	15328	9	112
1	15362	9.02	112
1	15396	9.04	112
1	15430	9.06	12
1	15464	9.08	12
1	15498	9.1	112
1	15532	9.12	12
1	15566	9.14	12
1	15600	9.16	12
1	15634	9.18	12
1	15668	9.2	12
1	15702	9.22	12
1	15736	9.24	12
1	15770	9.26	12
1	15804	9.28	12
1	15838	9.3	12
1	15872	9.32	12
1	15906	9.34	12
1	15940	9.36	12
1	15974	9.38	12
1	16008	9.4	12
1	16042	9.42	12
1	16076	9.44	112
1	16110	9.46	112
1	16144	9.48	12
1	16178	9.5	12
1	16212	9.52	12
1	16246	9.54	12
1	16280	9.56	112
1	16314	9.58	12
1	16348	9.6	12
1	16382	9.62	12
1	16416	9.64	12
1	16450	9.66	12
1	16484	9.68	12
1	16518	9.7	12
1	16552	9.72	12
1	16586	9.74	12
1	16620	9.76	12
1	16654	9.78	12
1	16688	9.8	12
1	16722	9.82	12
1	16756	9.84	12
1	16790	9.86	12
1	16824	9.88	12
1	16858	9.9	12
1	16892	9.92	12
1	16926	9.94	12
1	16960	9.96	12
1	16994	9.98	12
1	17028	10	12
1	17062	10.02	12
1	17096	10.04	12
1	17130	10.06	12
1	17164	10.08	12
1	17198	10.1	12
1	17232	10.12	12
1	17266	10.14	12
1	17300	10.16	12
1	17334	10.18	12
1	17368	10.2	12
1	17402	10.22	12
1	17436	10.24	112
1	17470	10.26	112
1	17504	10.28	112
1	17538	10.3	112
1	17572	10.32	112
1	17606	10.34	112
1	17640	10.36	112
1	17674	10.38	112
1	17708	10.4	112
1	17742	10.42	112
1	17776	10.44	112
1	17810	10.46	112
1	17844	10.48	112
1	17878	10.5	112
1	17912	10.52	112
1	17946	10.54	112
1	17980	10.56	112
1	18014	10.58	12
1	18048	10.6	112
1	18082	10.62	112
1	18116	10.64	112
1	18150	10.66	112
1	18184	10.68	112
1	18218	10.7	112
1	18252	10.72	112
1	18286	10.74	112
1	18320	10.76	112
1	18354	10.78	112
1	18388	10.8	112
1	18422	10.82	112
1	18456	10.84	112
1	18490	10.86	112
1	18524	10.88	112
1	18558	10.9	112
1	18592	10.92	112
1	18626	10.94	112
1	18660	10.96	112
1	18694	10.98	112
1	18728	11	12
1	18762	11.02	12
1	18796	11.04	112
1	18830	11.06	112
1	18864	11.08	112
1	18898	11.1	112
1	18932	11.12	12
1	18966	11.14	12
1	19000	11.16	112
1	19034	11.18	112
1	19068	11.2	12
1	19102	11.22	112
1	19136	11.24	112
1	19170	11.26	112
1	19204	11.28	112
1	19238	11.3	112
1	19272	11.32	112
1	19306	11.34	112
1	19340	11.36	112
1	19374	11.38	112
1	19408	11.4	112
1	19442	11.42	112
1	19476	11.44	112
1	19510	11.46	112
1	19544	11.48	112
1	19578	11.5	112
1	19612	11.52	112
1	19646	11.54	112
1	19680	11.56	112
1	19714	11.58	112
1	19748	11.6	112
1	19782	11.62	112
1	19816	11.64	112
1	19850	11.66	112
1	19884	11.68	112
1	19918	11.7	112
1	19952	11.72	112
1	19986	11.74	112
1	20020	11.76	112
1	20054	11.78	112
1	20088	11.8	112
1	20122	11.82	112
1	20156	11.84	112
1	20190	11.86	112
1	20224	11.88	112
1	20258	11.9	112
1	20292	11.92	112
1	20326	11.94	112
1	20360	11.96	112
1	20394	11.98	12
1	20428	12	12
1	20462	12.02	12
1	20496	12.04	112
1	20530	12.06	12
1	20564	12.08	12
1	20598	12.1	112
1	20632	12.12	112
1	20666	12.14	112
1	20700	12.16	112
1	20734	12.18	112
1	20768	12.2	112
1	20802	12.22	112
1	20836	12.24	112
1	20870	12.26	112
1	20904	12.28	112
1	20938	12.3	112
1	20972	12.32	112
1	21006	12.34	112
1	21040	12.36	112
1	21074	12.38	112
1	21108	12.4	112
1	21142	12.42	112
1	21176	12.44	112
1	21210	12.46	112
1	21244	12.48	112
1	21278	12.5	112
1	21312	12.52	112
1	21346	12.54	112
1	21380	12.56	112
1	21414	12.58	112
1	21448	12.6	112
1	21482	12.62	112
1	21516	12.64	112
1	21550	12.66	112
1	21584	12.68	112
1	21618	12.7	112
1	21652	12.72	112
1	21686	12.74	112
1	21720	12.76	112
1	21754	12.78	112
1	21788	12.8	112
1	21822	12.82	112
1	21856	12.84	112
1	21890	12.86	112
1	21924	12.88	112
1	21958	12.9	112
1	21992	12.92	112
1	22026	12.94	112
1	22060	12.96	112
1	22094	12.98	112
1	22128	13	112
1	22162	13.02	112
1	22196	13.04	112
1	22230	13.06	112
1	22264	13.08	112
1	22298	13.1	112
1	22332	13.12	12
1	22366	13.14	12
1	22400	13.16	12
1	22434	13.18	12
1	22468	13.2	12
1	22502	13.22	12
1	22536	13.24	12
1	22570	13.26	12
1	22604	13.28	12
1	22638	13.3	12
1	22672	13.32	12
1	22706	13.34	112
1	22740	13.36	112
1	22774	13.38	112
1	22808	13.4	112
1	22842	13.42	112
1	22876	13.44	112
1	22910	13.46	112
1	22944	13.48	112
1	22978	13.5	12
1	23012	13.52	12
1	23046	13.54	12
1	23080	13.56	12
1	23114	13.58	12
1	23148	13.6	12
1	23182	13.62	12
1	23216	13.64	12
1	23250	13.66	12
1	23284	13.68	12
1	23318	13.7	12
1	23352	13.72	12
1	23386	13.74	12
1	23420	13.76	112
1	23454	13.78	112
1	23488	13.8	112
1	23522	13.82	112
1	23556	13.84	112
1	23590	13.86	112
1	23624	13.88	112
1	23658	13.9	112
1	23692	13.92	112
1	23726	13.94	112
1	23760	13.96	112
1	23794	13.98	112
1	23828	14	112
1	23862	14.02	112
1	23896	14.04	112
1	23930	14.06	112
1	23964	14.08	112
1	23998	14.1	112
1	24032	14.12	112
1	24066	14.14	112
1	24100	14.16	112
1	24134	14.18	112
1	24168	14.2	112
1	24202	14.22	112
1	24236	14.24	112
1	24270	14.26	112
1	24304	14.28	112
1	24338	14.3	112
1	24372	14.32	112
1	24406	14.34	112
1	24440	14.36	112
1	24474	14.38	112
1	24508	14.4	112
1	24542	14.42	112
1	24576	14.44	112
1	24610	14.46	112
1	24644	14.48	112
1	24678	14.5	112
1	24712	14.52	112
1	24746	14.54	112
1	24780	14.56	112
1	24814	14.58	112
1	24848	14.6	112
1	24882	14.62	112
1	24916	14.64	112
1	24950	14.66	112
1	24984	14.68	112
1	25018	14.7	112
1	25052	14.72	112
1	25086	14.74	112
1	25120	14.76	112
1	25154	14.78	112
1	25188	14.8	112
1	25222	14.82	112
1	25256	14.84	112
1	25290	14.86	112
1	25324	14.88	112
1	25358	14.9	112
1	25392	14.92	112
1	25426	14.94	112
1	25460	14.96	112
1	25494	14.98	112
1	25528	15	112
1	25562	15.02	112
1	25596	15.04	112
1	25630	15.06	112
1	25664	15.08	12
1	25698	15.1	12
1	25732	15.12	12
1	25766	15.14	12
1	25800	15.16	112
1	25834	15.18	112
1	25868	15.2	112
1	25902	15.22	112
1	25936	15.24	112
1	25970	15.26	112
1	26004	15.28	112
1	26038	15.3	112
1	26072	15.32	112
1	26106	15.34	112
1	26140	15.36	112
1	26174	15.38	112
1	26208	15.4	12
1	26242	15.42	12
1	26276	15.44	12
1	26310	15.46	12
1	26344	15.48	12
1	26378	15.5	12
1	26412	15.52	112
1	26446	15.54	12
1	26480	15.56	112
1	26514	15.58	12
1	26548	15.6	12
1	26582	15.62	12
1	26616	15.64	12
1	26650	15.66	12
1	26684	15.68	12
1	26718	15.7	12
1	26752	15.72	12
1	26786	15.74	12
1	26820	15.76	112
1	26854	15.78	12
1	26888	15.8	12
1	26922	15.82	112
1	26956	15.84	12
1	26990	15.86	12
1	27024	15.88	12
1	27058	15.9	12
1	27092	15.92	12
1	27126	15.94	12
1	27160	15.96	12
1	27194	15.98	12
1	27228	16	12
1	27262	16.02	12
1	27296	16.04	12
1	27330	16.06	112
1	27364	16.08	12
1	27398	16.1	12
1	27432	16.12	12
1	27466	16.14	12
1	27500	16.16	12
1	27534	16.18	12
1	27568	16.2	12
1	27602	16.22	12
1	27636	16.24	12
1	27670	16.26	12
1	27704	16.28	12
1	27738	16.3	12
1	27772	16.32	12
1	27806	16.34	12
1	27840	16.36	12
1	27874	16.38	12
1	27908	16.4	12
1	27942	16.42	12
1	27976	16.44	12
1	28010	16.46	12
1	28044	16.48	112
1	28078	16.5	112
1	28112	16.52	112
1	28146	16.54	112
1	28180	16.56	112
1	28214	16.58	12
1	28248	16.6	112
1	28282	16.62	112
1	28316	16.64	112
1	28350	16.66	112
1	28384	16.68	112
1	28418	16.7	112
1	28452	16.72	12
1	28486	16.74	112
1	28520	16.76	112
1	28554	16.78	112
1	28588	16.8	112
1	28622	16.82	12
1	28656	16.84	12
1	28690	16.86	12
1	28724	16.88	112
1	28758	16.9	12
1	28792	16.92	12
1	28826	16.94	12
1	28860	16.96	12
1	28894	16.98	12
1	28928	17	12
1	28962	17.02	12
1	28996	17.04	12
1	29030	17.06	12
1	29064	17.08	12
1	29098	17.1	12
1	29132	17.12	112
1	29166	17.14	12
1	29200	17.16	12
1	29234	17.18	12
1	29268	17.2	12
1	29302	17.22	12
1	29336	17.24	12
1	29370	17.26	12
1	29404	17.28	12
1	29438	17.3	12
1	29472	17.32	12
1	29506	17.34	112
1	29540	17.36	112
1	29574	17.38	112
1	29608	17.4	112
1	29642	17.42	112
1	29676	17.44	12
1	29710	17.46	12
1	29744	17.48	12
1	29778	17.5	12
1	29812	17.52	12
1	29846	17.54	112
1	29880	17.56	112
1	29914	17.58	12
1	29948	17.6	12
1	29982	17.62	112
1	30016	17.64	112
1	30050	17.66	112
1	30084	17.68	112
1	30118	17.7	112
1	30152	17.72	112
1	30186	17.74	112
1	30220	17.76	112
1	30254	17.78	112
1	30288	17.8	112
1	30322	17.82	112
1	30356	17.84	112
1	30390	17.86	112
1	30424	17.88	112
1	30458	17.9	112
1	30492	17.92	112
1	30526	17.94	112
1	30560	17.96	112
1	30594	17.98	112
1	30628	18	112
1	30662	18.02	112
1	30696	18.04	112
1	30730	18.06	112
1	30764	18.08	112
1	30798	18.1	112
1	30832	18.12	112
1	30866	18.14	112
1	30900	18.16	112
1	30934	18.18	112
1	30968	18.2	112
1	31002	18.22	112
1	31036	18.24	112
1	31070	18.26	112
1	31104	18.28	112
1	31138	18.3	112
1	31172	18.32	112
1	31206	18.34	112
1	31240	18.36	112
1	31274	18.38	112
1	31308	18.4	112
1	31342	18.42	112
1	31376	18.44	112
1	31410	18.46	112
1	31444	18.48	112
1	31478	18.5	112
1	31512	18.52	112
1	31546	18.54	112
1	31580	18.56	112
1	31614	18.58	112
1	31648	18.6	112
1	31682	18.62	112
1	31716	18.64	112
1	31750	18.66	112
1	31784	18.68	112
1	31818	18.7	112
1	31852	18.72	112
1	31886	18.74	112
1	31920	18.76	112
1	31954	18.78	112
1	31988	18.8	112
1	32022	18.82	112
1	32056	18.84	112
1	32090	18.86	112
1	32124	18.88	112
1	32158	18.9	112
1	32192	18.92	112
1	32226	18.94	112
1	32260	18.96	112
1	32294	18.98	112
1	32328	19	112
1	32362	19.02	112
1	32396	19.04	112
1	32430	19.06	112
1	32464	19.08	112
1	32498	19.1	112
1	32532	19.12	112
1	32566	19.14	112
1	32600	19.16	12
1	32634	19.18	112
1	32668	19.2	112
1	32702	19.22	112
1	32736	19.24	112
1	32770	19.26	112
1	32804	19.28	112
1	32838	19.3	112
1	32872	19.32	112
1	32906	19.34	112
1	32940	19.36	112
1	32974	19.38	112
1	33008	19.4	112
1	33042	19.42	112
1	33076	19.44	112
1	33110	19.46	112
1	33144	19.48	112
1	33178	19.5	112
1	33212	19.52	112
1	33246	19.54	112
1	33280	19.56	112
1	33314	19.58	112
1	33348	19.6	112
1	33382	19.62	112
1	33416	19.64	112
1	33450	19.66	112
1	33484	19.68	112
1	33518	19.7	112
1	33552	19.72	112
1	33586	19.74	112
1	33620	19.76	112
1	33654	19.78	112
1	33688	19.8	12
1	33722	19.82	12
1	33756	19.84	12
1	33790	19.86	12
1	33824	19.88	12
1	33858	19.9	12
1	33892	19.92	12
1	33926	19.94	12
1	33960	19.96	12
1	33994	19.98	12
1	34028	20	12
1	34062	20.02	12
1	34096	20.04	12
1	34130	20.06	112
1	34164	20.08	112
1	34198	20.1	112
1	34232	20.12	112
1	34266	20.14	112
1	34300	20.16	112
1	34334	20.18	112
1	34368	20.2	112
1	34402	20.22	112
1	34436	20.24	12
1	34470	20.26	112
1	34504	20.28	12
1	34538	20.3	112
1	34572	20.32	112
1	34606	20.34	12
1	34640	20.36	12
1	34674	20.38	112
1	34708	20.4	112
1	34742	20.42	112
1	34776	20.44	112
1	34810	20.46	112
1	34844	20.48	112
1	34878	20.5	112
1	34912	20.52	112
1	34946	20.54	112
1	34980	20.56	112
1	35014	20.58	112
1	35048	20.6	112
1	35082	20.62	112
1	35116	20.64	112
1	35150	20.66	112
1	35184	20.68	112
1	35218	20.7	112
1	35252	20.72	112
1	35286	20.74	112
1	35320	20.76	112
1	35354	20.78	112
1	35388	20.8	112
1	35422	20.82	112
1	35456	20.84	112
1	35490	20.86	112
1	35524	20.88	112
1	35558	20.9	112
1	35592	20.92	112
1	35626	20.94	112
1	35660	20.96	112
1	35694	20.98	112
1	35728	21	112
1	35762	21.02	112
1	35796	21.04	112
1	35830	21.06	112
1	35864	21.08	112
1	35898	21.1	112
1	35932	21.12	112
1	35966	21.14	112
1	36000	21.16	112
1	36034	21.18	112
1	36068	21.2	112
1	36102	21.22	112
1	36136	21.24	112
1	36170	21.26	112
1	36204	21.28	112
1	36238	21.3	112
1	36272	21.32	112
1	36306	21.34	112
1	36340	21.36	112
1	36374	21.38	112
1	36408	21.4	112
1	36442	21.42	112
1	36476	21.44	112
1	36510	21.46	112
1	36544	21.48	112
1	36578	21.5	112
1	36612	21.52	112
1	36646	21.54	112
1	36680	21.56	112
1	36714	21.58	112
1	36748	21.6	112
1	36782	21.62	112
1	36816	21.64	112
1	36850	21.66	112
1	36884	21.68	112
1	36918	21.7	112
1	36952	21.72	112
1	36986	21.74	112
1	37020	21.76	112
1	37054	21.78	112
1	37088	21.8	112
1	37122	21.82	112
1	37156	21.84	112
1	37190	21.86	12
1	37224	21.88	12
1	37258	21.9	12
1	37292	21.92	12
1	37326	21.94	12
1	37360	21.96	12
1	37394	21.98	12
1	37428	22	12
1	37462	22.02	12
1	37496	22.04	12
1	37530	22.06	12
1	37564	22.08	12
1	37598	22.1	12
1	37632	22.12	12
1	37666	22.14	12
1	37700	22.16	12
1	37734	22.18	12
1	37768	22.2	12
1	37802	22.22	12
1	37836	22.24	12
1	37870	22.26	12
1	37904	22.28	12
1	37938	22.3	12
1	37972	22.32	12
1	38006	22.34	12
1	38040	22.36	12
1	38074	22.38	12
1	38108	22.4	12
1	38142	22.42	12
1	38176	22.44	12
1	38210	22.46	12
1	38244	22.48	12
1	38278	22.5	12
1	38312	22.52	12
1	38346	22.54	12
1	38380	22.56	12
1	38414	22.58	12
1	38448	22.6	12
1	38482	22.62	12
1	38516	22.64	12
1	38550	22.66	12
1	38584	22.68	12
1	38618	22.7	12
1	38652	22.72	12
1	38686	22.74	12
1	38720	22.76	12
1	38754	22.78	12
1	38788	22.8	12
1	38822	22.82	12
1	38856	22.84	12
1	38890	22.86	12
1	38924	22.88	12
1	38958	22.9	12
1	38992	22.92	12
1	39026	22.94	12
1	39060	22.96	12
1	39094	22.98	12
1	39128	23	12
1	39162	23.02	12
1	39196	23.04	12
1	39230	23.06	12
1	39264	23.08	12
1	39298	23.1	12
1	39332	23.12	12
1	39366	23.14	12
1	39400	23.16	12
1	39434	23.18	12
1	39468	23.2	12
1	39502	23.22	12
1	39536	23.24	12
1	39570	23.26	12
1	39604	23.28	112
1	39638	23.3	112
1	39672	23.32	112
1	39706	23.34	112
1	39740	23.36	12
1	39774	23.38	112
1	39808	23.4	112
1	39842	23.42	112
1	39876	23.44	112
1	39910	23.46	112
1	39944	23.48	112
1	39978	23.5	112
1	40012	23.52	112
1	40046	23.54	112
1	40080	23.56	112
1	40114	23.58	112
1	40148	23.6	112
1	40182	23.62	112
1	40216	23.64	112
1	40250	23.66	112
1	40284	23.68	112
1	40318	23.7	112
1	40352	23.72	112
1	40386	23.74	112
1	40420	23.76	112
1	40454	23.78	112
1	40488	23.8	112
1	40522	23.82	112
1	40556	23.84	112
1	40590	23.86	112
1	40624	23.88	112
1	40658	23.9	112
1	40692	23.92	112
1	40726	23.94	112
1	40760	23.96	112
1	40794	23.98	112
1	40828	24	112
1	40862	24.02	112
1	40896	24.04	112
1	40930	24.06	112
1	40964	24.08	112
1	40998	24.1	112
1	41032	24.12	112
1	41066	24.14	112
1	41100	24.16	112
1	41134	24.18	112
1	41168	24.2	112
1	41202	24.22	112
1	41236	24.24	112
1	41270	24.26	112
1	41304	24.28	12
1	41338	24.3	112
1	41372	24.32	12
1	41406	24.34	12
1	41440	24.36	12
1	41474	24.38	12
1	41508	24.4	12
1	41542	24.42	12
1	41576	24.44	12
1	41610	24.46	12
1	41644	24.48	12
1	41678	24.5	12
1	41712	24.52	12
1	41746	24.54	12
3	302	0.16	32
3	336	0.18	32
3	370	0.2	32
3	404	0.22	32
3	438	0.24	32
3	472	0.26	32
3	506	0.28	132
3	540	0.3	132
3	574	0.32	132
3	608	0.34	132
3	642	0.36	132
3	676	0.38	132
3	710	0.4	132
3	744	0.42	132
3	778	0.44	132
3	812	0.46	132
3	846	0.48	132
3	880	0.5	32
3	914	0.52	32
3	948	0.54	132
3	982	0.56	32
3	1016	0.58	132
3	1050	0.6	32
3	1084	0.62	32
3	1118	0.64	32
3	1152	0.66	32
3	1186	0.68	32
3	1220	0.7	32
3	1254	0.72	32
3	1288	0.74	32
3	1322	0.76	132
3	1356	0.78	132
3	1390	0.8	132
3	1424	0.82	132
3	1458	0.84	132
3	1492	0.86	132
3	1526	0.88	132
3	1560	0.9	132
3	1594	0.92	132
3	1628	0.94	132
3	1662	0.96	132
3	1696	0.98	132
3	1730	1	132
3	1764	1.02	132
3	1798	1.04	132
3	1832	1.06	132
3	1866	1.08	132
3	1900	1.1	132
3	1934	1.12	132
3	1968	1.14	132
3	2002	1.16	132
3	2036	1.18	132
3	2070	1.2	132
3	2104	1.22	132
3	2138	1.24	132
3	2172	1.26	132
3	2206	1.28	132
3	2240	1.3	132
3	2274	1.32	132
3	2308	1.34	132
3	2342	1.36	132
3	2376	1.38	132
3	2410	1.4	132
3	2444	1.42	132
3	2478	1.44	132
3	2512	1.46	132
3	2546	1.48	132
3	2580	1.5	132
3	2614	1.52	32
3	2648	1.54	32
3	2682	1.56	132
3	2716	1.58	132
3	2750	1.6	132
3	2784	1.62	132
3	2818	1.64	132
3	2852	1.66	132
3	2886	1.68	132
3	2920	1.7	132
3	2954	1.72	132
3	2988	1.74	132
3	3022	1.76	132
3	3056	1.78	132
3	3090	1.8	132
3	3124	1.82	132
3	3158	1.84	132
3	3192	1.86	132
3	3226	1.88	132
3	3260	1.9	132
3	3294	1.92	132
3	3328	1.94	132
3	3362	1.96	132
3	3396	1.98	132
3	3430	2	132
3	3464	2.02	132
3	3498	2.04	132
3	3532	2.06	132
3	3566	2.08	132
3	3600	2.1	132
3	3634	2.12	132
3	3668	2.14	132
3	3702	2.16	132
3	3736	2.18	132
3	3770	2.2	132
3	3804	2.22	132
3	3838	2.24	132
3	3872	2.26	132
3	3906	2.28	132
3	3940	2.3	132
3	3974	2.32	132
3	4008	2.34	132
3	4042	2.36	132
3	4076	2.38	132
3	4110	2.4	132
3	4144	2.42	132
3	4178	2.44	132
3	4212	2.46	132
3	4246	2.48	132
3	4280	2.5	132
3	4314	2.52	132
3	4348	2.54	132
3	4382	2.56	132
3	4416	2.58	132
3	4450	2.6	132
3	4484	2.62	132
3	4518	2.64	132
3	4552	2.66	32
3	4586	2.68	32
3	4620	2.7	32
3	4654	2.72	32
3	4688	2.74	32
3	4722	2.76	32
3	4756	2.78	32
3	4790	2.8	32
3	4824	2.82	32
3	4858	2.84	32
3	4892	2.86	32
3	4926	2.88	32
3	4960	2.9	32
3	4994	2.92	32
3	5028	2.94	32
3	5062	2.96	32
3	5096	2.98	32
3	5130	3	32
3	5164	3.02	32
3	5198	3.04	32
3	5232	3.06	132
3	5266	3.08	132
3	5300	3.1	32
3	5334	3.12	132
3	5368	3.14	132
3	5402	3.16	132
3	5436	3.18	132
3	5470	3.2	132
3	5504	3.22	132
3	5538	3.24	32
3	5572	3.26	132
3	5606	3.28	32
3	5640	3.3	32
3	5674	3.32	32
3	5708	3.34	32
3	5742	3.36	32
3	5776	3.38	32
3	5810	3.4	132
3	5844	3.42	132
3	5878	3.44	132
3	5912	3.46	132
3	5946	3.48	132
3	5980	3.5	132
3	6014	3.52	132
3	6048	3.54	132
3	6082	3.56	132
3	6116	3.58	132
3	6150	3.6	132
3	6184	3.62	132
3	6218	3.64	132
3	6252	3.66	132
3	6286	3.68	132
3	6320	3.7	132
3	6354	3.72	132
3	6388	3.74	132
3	6422	3.76	132
3	6456	3.78	132
3	6490	3.8	132
3	6524	3.82	132
3	6558	3.84	132
3	6592	3.86	132
3	6626	3.88	132
3	6660	3.9	132
3	6694	3.92	132
3	6728	3.94	132
3	6762	3.96	132
3	6796	3.98	132
3	6830	4	132
3	6864	4.02	132
3	6898	4.04	132
3	6932	4.06	132
3	6966	4.08	132
3	7000	4.1	132
3	7034	4.12	132
3	7068	4.14	132
3	7102	4.16	132
3	7136	4.18	132
3	7170	4.2	132
3	7204	4.22	132
3	7238	4.24	132
3	7272	4.26	132
3	7306	4.28	132
3	7340	4.3	132
3	7374	4.32	132
3	7408	4.34	132
3	7442	4.36	32
3	7476	4.38	132
3	7510	4.4	132
3	7544	4.42	132
3	7578	4.44	132
3	7612	4.46	132
3	7646	4.48	132
3	7680	4.5	132
3	7714	4.52	132
3	7748	4.54	132
3	7782	4.56	132
3	7816	4.58	132
3	7850	4.6	132
3	7884	4.62	132
3	7918	4.64	132
3	7952	4.66	132
3	7986	4.68	132
3	8020	4.7	132
3	8054	4.72	132
3	8088	4.74	132
3	8122	4.76	132
3	8156	4.78	132
3	8190	4.8	132
3	8224	4.82	132
3	8258	4.84	132
3	8292	4.86	132
3	8326	4.88	132
3	8360	4.9	132
3	8394	4.92	132
3	8428	4.94	132
3	8462	4.96	132
3	8496	4.98	132
3	8530	5	132
3	8564	5.02	132
3	8598	5.04	132
3	8632	5.06	132
3	8666	5.08	132
3	8700	5.1	132
3	8734	5.12	132
3	8768	5.14	132
3	8802	5.16	132
3	8836	5.18	132
3	8870	5.2	132
3	8904	5.22	132
3	8938	5.24	132
3	8972	5.26	132
3	9006	5.28	132
3	9040	5.3	132
3	9074	5.32	132
3	9108	5.34	132
3	9142	5.36	132
3	9176	5.38	132
3	9210	5.4	132
3	9244	5.42	132
3	9278	5.44	132
3	9312	5.46	132
3	9346	5.48	132
3	9380	5.5	132
3	9414	5.52	132
3	9448	5.54	132
3	9482	5.56	132
3	9516	5.58	132
3	9550	5.6	132
3	9584	5.62	132
3	9618	5.64	32
3	9652	5.66	32
3	9686	5.68	32
3	9720	5.7	32
3	9754	5.72	32
3	9788	5.74	132
3	9822	5.76	132
3	9856	5.78	32
3	9890	5.8	32
3	9924	5.82	32
3	9958	5.84	132
3	9992	5.86	132
3	10026	5.88	132
3	10060	5.9	132
3	10094	5.92	132
3	10128	5.94	132
3	10162	5.96	132
3	10196	5.98	132
3	10230	6	132
3	10264	6.02	132
3	10298	6.04	132
3	10332	6.06	132
3	10366	6.08	132
3	10400	6.1	132
3	10434	6.12	132
3	10468	6.14	32
3	10502	6.16	32
3	10536	6.18	32
3	10570	6.2	32
3	10604	6.22	32
3	10638	6.24	132
3	10672	6.26	132
3	10706	6.28	132
3	10740	6.3	132
3	10774	6.32	132
3	10808	6.34	132
3	10842	6.36	132
3	10876	6.38	132
3	10910	6.4	132
3	10944	6.42	132
3	10978	6.44	132
3	11012	6.46	132
3	11046	6.48	132
3	11080	6.5	132
3	11114	6.52	132
3	11148	6.54	132
3	11182	6.56	132
3	11216	6.58	132
3	11250	6.6	132
3	11284	6.62	132
3	11318	6.64	132
3	11352	6.66	132
3	11386	6.68	132
3	11420	6.7	132
3	11454	6.72	132
3	11488	6.74	132
3	11522	6.76	132
3	11556	6.78	132
3	11590	6.8	132
3	11624	6.82	132
3	11658	6.84	132
3	11692	6.86	132
3	11726	6.88	132
3	11760	6.9	132
3	11794	6.92	132
3	11828	6.94	132
3	11862	6.96	132
3	11896	6.98	132
3	11930	7	132
3	11964	7.02	132
3	11998	7.04	132
3	12032	7.06	132
3	12066	7.08	32
3	12100	7.1	32
3	12134	7.12	32
3	12168	7.14	32
3	12202	7.16	32
3	12236	7.18	132
3	12270	7.2	132
3	12304	7.22	132
3	12338	7.24	132
3	12372	7.26	132
3	12406	7.28	132
3	12440	7.3	132
3	12474	7.32	132
3	12508	7.34	132
3	12542	7.36	132
3	12576	7.38	132
3	12610	7.4	132
3	12644	7.42	132
3	12678	7.44	132
3	12712	7.46	32
3	12746	7.48	32
3	12780	7.5	32
3	12814	7.52	32
3	12848	7.54	32
3	12882	7.56	32
3	12916	7.58	32
3	12950	7.6	32
3	12984	7.62	32
3	13018	7.64	132
3	13052	7.66	32
3	13086	7.68	32
3	13120	7.7	32
3	13154	7.72	32
3	13188	7.74	32
3	13222	7.76	32
3	13256	7.78	132
3	13290	7.8	132
3	13324	7.82	132
3	13358	7.84	32
3	13392	7.86	32
3	13426	7.88	32
3	13460	7.9	32
3	13494	7.92	32
3	13528	7.94	32
3	13562	7.96	32
3	13596	7.98	32
3	13630	8	32
3	13664	8.02	32
3	13698	8.04	32
3	13732	8.06	32
3	13766	8.08	32
3	13800	8.1	32
3	13834	8.12	32
3	13868	8.14	32
3	13902	8.16	32
3	13936	8.18	132
3	13970	8.2	32
3	14004	8.22	32
3	14038	8.24	32
3	14072	8.26	32
3	14106	8.28	132
3	14140	8.3	132
3	14174	8.32	132
3	14208	8.34	32
3	14242	8.36	132
3	14276	8.38	132
3	14310	8.4	132
3	14344	8.42	32
3	14378	8.44	32
3	14412	8.46	32
3	14446	8.48	32
3	14480	8.5	32
3	14514	8.52	132
3	14548	8.54	132
3	14582	8.56	132
3	14616	8.58	132
3	14650	8.6	32
3	14684	8.62	32
3	14718	8.64	32
3	14752	8.66	32
3	14786	8.68	32
3	14820	8.7	132
3	14854	8.72	132
3	14888	8.74	132
3	14922	8.76	132
3	14956	8.78	132
3	14990	8.8	132
3	15024	8.82	132
3	15058	8.84	132
3	15092	8.86	132
3	15126	8.88	132
3	15160	8.9	132
3	15194	8.92	132
3	15228	8.94	132
3	15262	8.96	132
3	15296	8.98	132
3	15330	9	132
3	15364	9.02	132
3	15398	9.04	132
3	15432	9.06	32
3	15466	9.08	32
3	15500	9.1	132
3	15534	9.12	32
3	15568	9.14	32
3	15602	9.16	32
3	15636	9.18	32
3	15670	9.2	32
3	15704	9.22	32
3	15738	9.24	32
3	15772	9.26	32
3	15806	9.28	32
3	15840	9.3	32
3	15874	9.32	32
3	15908	9.34	32
3	15942	9.36	32
3	15976	9.38	32
3	16010	9.4	32
3	16044	9.42	32
3	16078	9.44	132
3	16112	9.46	132
3	16146	9.48	32
3	16180	9.5	32
3	16214	9.52	32
3	16248	9.54	32
3	16282	9.56	132
3	16316	9.58	32
3	16350	9.6	32
3	16384	9.62	32
3	16418	9.64	32
3	16452	9.66	32
3	16486	9.68	32
3	16520	9.7	32
3	16554	9.72	32
3	16588	9.74	32
3	16622	9.76	32
3	16656	9.78	32
3	16690	9.8	32
3	16724	9.82	32
3	16758	9.84	32
3	16792	9.86	32
3	16826	9.88	32
3	16860	9.9	32
3	16894	9.92	32
3	16928	9.94	32
3	16962	9.96	32
3	16996	9.98	32
3	17030	10	32
3	17064	10.02	32
3	17098	10.04	32
3	17132	10.06	32
3	17166	10.08	32
3	17200	10.1	32
3	17234	10.12	32
3	17268	10.14	32
3	17302	10.16	32
3	17336	10.18	32
3	17370	10.2	32
3	17404	10.22	32
3	17438	10.24	132
3	17472	10.26	132
3	17506	10.28	132
3	17540	10.3	132
3	17574	10.32	132
3	17608	10.34	132
3	17642	10.36	132
3	17676	10.38	132
3	17710	10.4	132
3	17744	10.42	132
3	17778	10.44	132
3	17812	10.46	132
3	17846	10.48	132
3	17880	10.5	132
3	17914	10.52	132
3	17948	10.54	132
3	17982	10.56	132
3	18016	10.58	32
3	18050	10.6	132
3	18084	10.62	132
3	18118	10.64	132
3	18152	10.66	132
3	18186	10.68	132
3	18220	10.7	132
3	18254	10.72	132
3	18288	10.74	132
3	18322	10.76	132
3	18356	10.78	132
3	18390	10.8	132
3	18424	10.82	132
3	18458	10.84	132
3	18492	10.86	132
3	18526	10.88	132
3	18560	10.9	132
3	18594	10.92	132
3	18628	10.94	132
3	18662	10.96	132
3	18696	10.98	132
3	18730	11	32
3	18764	11.02	32
3	18798	11.04	132
3	18832	11.06	132
3	18866	11.08	132
3	18900	11.1	132
3	18934	11.12	32
3	18968	11.14	32
3	19002	11.16	132
3	19036	11.18	132
3	19070	11.2	32
3	19104	11.22	132
3	19138	11.24	132
3	19172	11.26	132
3	19206	11.28	132
3	19240	11.3	132
3	19274	11.32	132
3	19308	11.34	132
3	19342	11.36	132
3	19376	11.38	132
3	19410	11.4	132
3	19444	11.42	132
3	19478	11.44	132
3	19512	11.46	132
3	19546	11.48	132
3	19580	11.5	132
3	19614	11.52	132
3	19648	11.54	132
3	19682	11.56	132
3	19716	11.58	132
3	19750	11.6	132
3	19784	11.62	132
3	19818	11.64	132
3	19852	11.66	132
3	19886	11.68	132
3	19920	11.7	132
3	19954	11.72	132
3	19988	11.74	132
3	20022	11.76	132
3	20056	11.78	132
3	20090	11.8	132
3	20124	11.82	132
3	20158	11.84	132
3	20192	11.86	132
3	20226	11.88	132
3	20260	11.9	132
3	20294	11.92	132
3	20328	11.94	132
3	20362	11.96	132
3	20396	11.98	32
3	20430	12	32
3	20464	12.02	32
3	20498	12.04	132
3	20532	12.06	32
3	20566	12.08	32
3	20600	12.1	132
3	20634	12.12	132
3	20668	12.14	132
3	20702	12.16	132
3	20736	12.18	132
3	20770	12.2	132
3	20804	12.22	132
3	20838	12.24	132
3	20872	12.26	132
3	20906	12.28	132
3	20940	12.3	132
3	20974	12.32	132
3	21008	12.34	132
3	21042	12.36	132
3	21076	12.38	132
3	21110	12.4	132
3	21144	12.42	132
3	21178	12.44	132
3	21212	12.46	132
3	21246	12.48	132
3	21280	12.5	132
3	21314	12.52	132
3	21348	12.54	132
3	21382	12.56	132
3	21416	12.58	132
3	21450	12.6	132
3	21484	12.62	132
3	21518	12.64	132
3	21552	12.66	132
3	21586	12.68	132
3	21620	12.7	132
3	21654	12.72	132
3	21688	12.74	132
3	21722	12.76	132
3	21756	12.78	132
3	21790	12.8	132
3	21824	12.82	132
3	21858	12.84	132
3	21892	12.86	132
3	21926	12.88	132
3	21960	12.9	132
3	21994	12.92	132
3	22028	12.94	132
3	22062	12.96	132
3	22096	12.98	132
3	22130	13	132
3	22164	13.02	132
3	22198	13.04	132
3	22232	13.06	132
3	22266	13.08	132
3	22300	13.1	132
3	22334	13.12	32
3	22368	13.14	32
3	22402	13.16	32
3	22436	13.18	32
3	22470	13.2	32
3	22504	13.22	32
3	22538	13.24	32
3	22572	13.26	32
3	22606	13.28	32
3	22640	13.3	32
3	22674	13.32	32
3	22708	13.34	132
3	22742	13.36	132
3	22776	13.38	132
3	22810	13.4	132
3	22844	13.42	132
3	22878	13.44	132
3	22912	13.46	132
3	22946	13.48	132
3	22980	13.5	32
3	23014	13.52	32
3	23048	13.54	32
3	23082	13.56	32
3	23116	13.58	32
3	23150	13.6	32
3	23184	13.62	32
3	23218	13.64	32
3	23252	13.66	32
3	23286	13.68	32
3	23320	13.7	32
3	23354	13.72	32
3	23388	13.74	32
3	23422	13.76	132
3	23456	13.78	132
3	23490	13.8	132
3	23524	13.82	132
3	23558	13.84	132
3	23592	13.86	132
3	23626	13.88	132
3	23660	13.9	132
3	23694	13.92	132
3	23728	13.94	132
3	23762	13.96	132
3	23796	13.98	132
3	23830	14	132
3	23864	14.02	132
3	23898	14.04	132
3	23932	14.06	132
3	23966	14.08	132
3	24000	14.1	132
3	24034	14.12	132
3	24068	14.14	132
3	24102	14.16	132
3	24136	14.18	132
3	24170	14.2	132
3	24204	14.22	132
3	24238	14.24	132
3	24272	14.26	132
3	24306	14.28	132
3	24340	14.3	132
3	24374	14.32	132
3	24408	14.34	132
3	24442	14.36	132
3	24476	14.38	132
3	24510	14.4	132
3	24544	14.42	132
3	24578	14.44	132
3	24612	14.46	132
3	24646	14.48	132
3	24680	14.5	132
3	24714	14.52	132
3	24748	14.54	132
3	24782	14.56	132
3	24816	14.58	132
3	24850	14.6	132
3	24884	14.62	132
3	24918	14.64	132
3	24952	14.66	132
3	24986	14.68	132
3	25020	14.7	132
3	25054	14.72	132
3	25088	14.74	132
3	25122	14.76	132
3	25156	14.78	132
3	25190	14.8	132
3	25224	14.82	132
3	25258	14.84	132
3	25292	14.86	132
3	25326	14.88	132
3	25360	14.9	132
3	25394	14.92	132
3	25428	14.94	132
3	25462	14.96	132
3	25496	14.98	132
3	25530	15	132
3	25564	15.02	132
3	25598	15.04	132
3	25632	15.06	132
3	25666	15.08	32
3	25700	15.1	32
3	25734	15.12	32
3	25768	15.14	32
3	25802	15.16	132
3	25836	15.18	132
3	25870	15.2	132
3	25904	15.22	132
3	25938	15.24	132
3	25972	15.26	132
3	26006	15.28	132
3	26040	15.3	132
3	26074	15.32	132
3	26108	15.34	132
3	26142	15.36	132
3	26176	15.38	132
3	26210	15.4	32
3	26244	15.42	32
3	26278	15.44	32
3	26312	15.46	32
3	26346	15.48	32
3	26380	15.5	32
3	26414	15.52	132
3	26448	15.54	32
3	26482	15.56	132
3	26516	15.58	32
3	26550	15.6	32
3	26584	15.62	32
3	26618	15.64	32
3	26652	15.66	32
3	26686	15.68	32
3	26720	15.7	32
3	26754	15.72	32
3	26788	15.74	32
3	26822	15.76	132
3	26856	15.78	32
3	26890	15.8	32
3	26924	15.82	132
3	26958	15.84	32
3	26992	15.86	32
3	27026	15.88	32
3	27060	15.9	32
3	27094	15.92	32
3	27128	15.94	32
3	27162	15.96	32
3	27196	15.98	32
3	27230	16	32
3	27264	16.02	32
3	27298	16.04	32
3	27332	16.06	132
3	27366	16.08	32
3	27400	16.1	32
3	27434	16.12	32
3	27468	16.14	32
3	27502	16.16	32
3	27536	16.18	32
3	27570	16.2	32
3	27604	16.22	32
3	27638	16.24	32
3	27672	16.26	32
3	27706	16.28	32
3	27740	16.3	32
3	27774	16.32	32
3	27808	16.34	32
3	27842	16.36	32
3	27876	16.38	32
3	27910	16.4	32
3	27944	16.42	32
3	27978	16.44	32
3	28012	16.46	32
3	28046	16.48	132
3	28080	16.5	132
3	28114	16.52	132
3	28148	16.54	132
3	28182	16.56	132
3	28216	16.58	32
3	28250	16.6	132
3	28284	16.62	132
3	28318	16.64	132
3	28352	16.66	132
3	28386	16.68	132
3	28420	16.7	132
3	28454	16.72	32
3	28488	16.74	132
3	28522	16.76	132
3	28556	16.78	132
3	28590	16.8	132
3	28624	16.82	32
3	28658	16.84	32
3	28692	16.86	32
3	28726	16.88	132
3	28760	16.9	32
3	28794	16.92	32
3	28828	16.94	32
3	28862	16.96	32
3	28896	16.98	32
3	28930	17	32
3	28964	17.02	32
3	28998	17.04	32
3	29032	17.06	32
3	29066	17.08	32
3	29100	17.1	32
3	29134	17.12	132
3	29168	17.14	32
3	29202	17.16	32
3	29236	17.18	32
3	29270	17.2	32
3	29304	17.22	32
3	29338	17.24	32
3	29372	17.26	32
3	29406	17.28	32
3	29440	17.3	32
3	29474	17.32	32
3	29508	17.34	132
3	29542	17.36	132
3	29576	17.38	132
3	29610	17.4	132
3	29644	17.42	132
3	29678	17.44	32
3	29712	17.46	32
3	29746	17.48	32
3	29780	17.5	32
3	29814	17.52	32
3	29848	17.54	132
3	29882	17.56	132
3	29916	17.58	32
3	29950	17.6	32
3	29984	17.62	132
3	30018	17.64	132
3	30052	17.66	132
3	30086	17.68	132
3	30120	17.7	132
3	30154	17.72	132
3	30188	17.74	132
3	30222	17.76	132
3	30256	17.78	132
3	30290	17.8	132
3	30324	17.82	132
3	30358	17.84	132
3	30392	17.86	132
3	30426	17.88	132
3	30460	17.9	132
3	30494	17.92	132
3	30528	17.94	132
3	30562	17.96	132
3	30596	17.98	132
3	30630	18	132
3	30664	18.02	132
3	30698	18.04	132
3	30732	18.06	132
3	30766	18.08	132
3	30800	18.1	132
3	30834	18.12	132
3	30868	18.14	132
3	30902	18.16	132
3	30936	18.18	132
3	30970	18.2	132
3	31004	18.22	132
3	31038	18.24	132
3	31072	18.26	132
3	31106	18.28	132
3	31140	18.3	132
3	31174	18.32	132
3	31208	18.34	132
3	31242	18.36	132
3	31276	18.38	132
3	31310	18.4	132
3	31344	18.42	132
3	31378	18.44	132
3	31412	18.46	132
3	31446	18.48	132
3	31480	18.5	132
3	31514	18.52	132
3	31548	18.54	132
3	31582	18.56	132
3	31616	18.58	132
3	31650	18.6	132
3	31684	18.62	132
3	31718	18.64	132
3	31752	18.66	132
3	31786	18.68	132
3	31820	18.7	132
3	31854	18.72	132
3	31888	18.74	132
3	31922	18.76	132
3	31956	18.78	132
3	31990	18.8	132
3	32024	18.82	132
3	32058	18.84	132
3	32092	18.86	132
3	32126	18.88	132
3	32160	18.9	132
3	32194	18.92	132
3	32228	18.94	132
3	32262	18.96	132
3	32296	18.98	132
3	32330	19	132
3	32364	19.02	132
3	32398	19.04	132
3	32432	19.06	132
3	32466	19.08	132
3	32500	19.1	132
3	32534	19.12	132
3	32568	19.14	132
3	32602	19.16	32
3	32636	19.18	132
3	32670	19.2	132
3	32704	19.22	132
3	32738	19.24	132
3	32772	19.26	132
3	32806	19.28	132
3	32840	19.3	132
3	32874	19.32	132
3	32908	19.34	132
3	32942	19.36	132
3	32976	19.38	132
3	33010	19.4	132
3	33044	19.42	132
3	33078	19.44	132
3	33112	19.46	132
3	33146	19.48	132
3	33180	19.5	132
3	33214	19.52	132
3	33248	19.54	132
3	33282	19.56	132
3	33316	19.58	132
3	33350	19.6	132
3	33384	19.62	132
3	33418	19.64	132
3	33452	19.66	132
3	33486	19.68	132
3	33520	19.7	132
3	33554	19.72	132
3	33588	19.74	132
3	33622	19.76	132
3	33656	19.78	132
3	33690	19.8	32
3	33724	19.82	32
3	33758	19.84	32
3	33792	19.86	32
3	33826	19.88	32
3	33860	19.9	32
3	33894	19.92	32
3	33928	19.94	32
3	33962	19.96	32
3	33996	19.98	32
3	34030	20	32
3	34064	20.02	32
3	34098	20.04	32
3	34132	20.06	132
3	34166	20.08	132
3	34200	20.1	132
3	34234	20.12	132
3	34268	20.14	132
3	34302	20.16	132
3	34336	20.18	132
3	34370	20.2	132
3	34404	20.22	132
3	34438	20.24	32
3	34472	20.26	132
3	34506	20.28	32
3	34540	20.3	132
3	34574	20.32	132
3	34608	20.34	32
3	34642	20.36	32
3	34676	20.38	132
3	34710	20.4	132
3	34744	20.42	132
3	34778	20.44	132
3	34812	20.46	132
3	34846	20.48	132
3	34880	20.5	132
3	34914	20.52	132
3	34948	20.54	132
3	34982	20.56	132
3	35016	20.58	132
3	35050	20.6	132
3	35084	20.62	132
3	35118	20.64	132
3	35152	20.66	132
3	35186	20.68	132
3	35220	20.7	132
3	35254	20.72	132
3	35288	20.74	132
3	35322	20.76	132
3	35356	20.78	132
3	35390	20.8	132
3	35424	20.82	132
3	35458	20.84	132
3	35492	20.86	132
3	35526	20.88	132
3	35560	20.9	132
3	35594	20.92	132
3	35628	20.94	132
3	35662	20.96	132
3	35696	20.98	132
3	35730	21	132
3	35764	21.02	132
3	35798	21.04	132
3	35832	21.06	132
3	35866	21.08	132
3	35900	21.1	132
3	35934	21.12	132
3	35968	21.14	132
3	36002	21.16	132
3	36036	21.18	132
3	36070	21.2	132
3	36104	21.22	132
3	36138	21.24	132
3	36172	21.26	132
3	36206	21.28	132
3	36240	21.3	132
3	36274	21.32	132
3	36308	21.34	132
3	36342	21.36	132
3	36376	21.38	132
3	36410	21.4	132
3	36444	21.42	132
3	36478	21.44	132
3	36512	21.46	132
3	36546	21.48	132
3	36580	21.5	132
3	36614	21.52	132
3	36648	21.54	132
3	36682	21.56	132
3	36716	21.58	132
3	36750	21.6	132
3	36784	21.62	132
3	36818	21.64	132
3	36852	21.66	132
3	36886	21.68	132
3	36920	21.7	132
3	36954	21.72	132
3	36988	21.74	132
3	37022	21.76	132
3	37056	21.78	132
3	37090	21.8	132
3	37124	21.82	132
3	37158	21.84	132
3	37192	21.86	32
3	37226	21.88	32
3	37260	21.9	32
3	37294	21.92	32
3	37328	21.94	32
3	37362	21.96	32
3	37396	21.98	32
3	37430	22	32
3	37464	22.02	32
3	37498	22.04	32
3	37532	22.06	32
3	37566	22.08	32
3	37600	22.1	32
3	37634	22.12	32
3	37668	22.14	32
3	37702	22.16	32
3	37736	22.18	32
3	37770	22.2	32
3	37804	22.22	32
3	37838	22.24	32
3	37872	22.26	32
3	37906	22.28	32
3	37940	22.3	32
3	37974	22.32	32
3	38008	22.34	32
3	38042	22.36	32
3	38076	22.38	32
3	38110	22.4	32
3	38144	22.42	32
3	38178	22.44	32
3	38212	22.46	32
3	38246	22.48	32
3	38280	22.5	32
3	38314	22.52	32
3	38348	22.54	32
3	38382	22.56	32
3	38416	22.58	32
3	38450	22.6	32
3	38484	22.62	32
3	38518	22.64	32
3	38552	22.66	32
3	38586	22.68	32
3	38620	22.7	32
3	38654	22.72	32
3	38688	22.74	32
3	38722	22.76	32
3	38756	22.78	32
3	38790	22.8	32
3	38824	22.82	32
3	38858	22.84	32
3	38892	22.86	32
3	38926	22.88	32
3	38960	22.9	32
3	38994	22.92	32
3	39028	22.94	32
3	39062	22.96	32
3	39096	22.98	32
3	39130	23	32
3	39164	23.02	32
3	39198	23.04	32
3	39232	23.06	32
3	39266	23.08	32
3	39300	23.1	32
3	39334	23.12	32
3	39368	23.14	32
3	39402	23.16	32
3	39436	23.18	32
3	39470	23.2	32
3	39504	23.22	32
3	39538	23.24	32
3	39572	23.26	32
3	39606	23.28	132
3	39640	23.3	132
3	39674	23.32	132
3	39708	23.34	132
3	39742	23.36	32
3	39776	23.38	132
3	39810	23.4	132
3	39844	23.42	132
3	39878	23.44	132
3	39912	23.46	132
3	39946	23.48	132
3	39980	23.5	132
3	40014	23.52	132
3	40048	23.54	132
3	40082	23.56	132
3	40116	23.58	132
3	40150	23.6	132
3	40184	23.62	132
3	40218	23.64	132
3	40252	23.66	132
3	40286	23.68	132
3	40320	23.7	132
3	40354	23.72	132
3	40388	23.74	132
3	40422	23.76	132
3	40456	23.78	132
3	40490	23.8	132
3	40524	23.82	132
3	40558	23.84	132
3	40592	23.86	132
3	40626	23.88	132
3	40660	23.9	132
3	40694	23.92	132
3	40728	23.94	132
3	40762	23.96	132
3	40796	23.98	132
3	40830	24	132
3	40864	24.02	132
3	40898	24.04	132
3	40932	24.06	132
3	40966	24.08	132
3	41000	24.1	132
3	41034	24.12	132
3	41068	24.14	132
3	41102	24.16	132
3	41136	24.18	132
3	41170	24.2	132
3	41204	24.22	132
3	41238	24.24	132
3	41272	24.26	132
3	41306	24.28	32
3	41340	24.3	132
3	41374	24.32	32
3	41408	24.34	32
3	41442	24.36	32
3	41476	24.38	32
3	41510	24.4	32
3	41544	24.42	32
3	41578	24.44	32
3	41612	24.46	32
3	41646	24.48	32
3	41680	24.5	32
3	41714	24.52	32
3	41748	24.54	32
4	303	0.16	64
4	337	0.18	64
4	371	0.2	64
4	405	0.22	64
4	439	0.24	64
4	473	0.26	64
4	507	0.28	150
4	541	0.3	150
4	575	0.32	150
4	609	0.34	150
4	643	0.36	150
4	677	0.38	150
4	711	0.4	150
4	745	0.42	150
4	779	0.44	150
4	813	0.46	150
4	847	0.48	150
4	881	0.5	64
4	915	0.52	64
4	949	0.54	150
4	983	0.56	64
4	1017	0.58	150
4	1051	0.6	64
4	1085	0.62	64
4	1119	0.64	64
4	1153	0.66	64
4	1187	0.68	64
4	1221	0.7	64
4	1255	0.72	64
4	1289	0.74	64
4	1323	0.76	150
4	1357	0.78	150
4	1391	0.8	150
4	1425	0.82	150
4	1459	0.84	150
4	1493	0.86	150
4	1527	0.88	150
4	1561	0.9	150
4	1595	0.92	150
4	1629	0.94	150
4	1663	0.96	150
4	1697	0.98	150
4	1731	1	150
4	1765	1.02	150
4	1799	1.04	150
4	1833	1.06	150
4	1867	1.08	150
4	1901	1.1	150
4	1935	1.12	150
4	1969	1.14	150
4	2003	1.16	150
4	2037	1.18	150
4	2071	1.2	150
4	2105	1.22	150
4	2139	1.24	150
4	2173	1.26	150
4	2207	1.28	150
4	2241	1.3	150
4	2275	1.32	150
4	2309	1.34	150
4	2343	1.36	150
4	2377	1.38	150
4	2411	1.4	150
4	2445	1.42	150
4	2479	1.44	150
4	2513	1.46	150
4	2547	1.48	150
4	2581	1.5	150
4	2615	1.52	64
4	2649	1.54	64
4	2683	1.56	150
4	2717	1.58	150
4	2751	1.6	150
4	2785	1.62	150
4	2819	1.64	150
4	2853	1.66	150
4	2887	1.68	150
4	2921	1.7	150
4	2955	1.72	150
4	2989	1.74	150
4	3023	1.76	150
4	3057	1.78	150
4	3091	1.8	150
4	3125	1.82	150
4	3159	1.84	150
4	3193	1.86	150
4	3227	1.88	150
4	3261	1.9	150
4	3295	1.92	150
4	3329	1.94	150
4	3363	1.96	150
4	3397	1.98	150
4	3431	2	150
4	3465	2.02	150
4	3499	2.04	150
4	3533	2.06	150
4	3567	2.08	150
4	3601	2.1	150
4	3635	2.12	150
4	3669	2.14	150
4	3703	2.16	150
4	3737	2.18	150
4	3771	2.2	150
4	3805	2.22	150
4	3839	2.24	150
4	3873	2.26	150
4	3907	2.28	150
4	3941	2.3	150
4	3975	2.32	150
4	4009	2.34	150
4	4043	2.36	150
4	4077	2.38	150
4	4111	2.4	150
4	4145	2.42	150
4	4179	2.44	150
4	4213	2.46	150
4	4247	2.48	150
4	4281	2.5	150
4	4315	2.52	150
4	4349	2.54	150
4	4383	2.56	150
4	4417	2.58	150
4	4451	2.6	150
4	4485	2.62	150
4	4519	2.64	150
4	4553	2.66	64
4	4587	2.68	64
4	4621	2.7	64
4	4655	2.72	64
4	4689	2.74	64
4	4723	2.76	64
4	4757	2.78	64
4	4791	2.8	64
4	4825	2.82	64
4	4859	2.84	64
4	4893	2.86	64
4	4927	2.88	64
4	4961	2.9	64
4	4995	2.92	64
4	5029	2.94	64
4	5063	2.96	64
4	5097	2.98	64
4	5131	3	64
4	5165	3.02	64
4	5199	3.04	64
4	5233	3.06	150
4	5267	3.08	150
4	5301	3.1	64
4	5335	3.12	150
4	5369	3.14	150
4	5403	3.16	150
4	5437	3.18	150
4	5471	3.2	150
4	5505	3.22	150
4	5539	3.24	64
4	5573	3.26	150
4	5607	3.28	64
4	5641	3.3	64
4	5675	3.32	64
4	5709	3.34	64
4	5743	3.36	64
4	5777	3.38	64
4	5811	3.4	150
4	5845	3.42	150
4	5879	3.44	150
4	5913	3.46	150
4	5947	3.48	150
4	5981	3.5	150
4	6015	3.52	150
4	6049	3.54	150
4	6083	3.56	150
4	6117	3.58	150
4	6151	3.6	150
4	6185	3.62	150
4	6219	3.64	150
4	6253	3.66	150
4	6287	3.68	150
4	6321	3.7	150
4	6355	3.72	150
4	6389	3.74	150
4	6423	3.76	150
4	6457	3.78	150
4	6491	3.8	150
4	6525	3.82	150
4	6559	3.84	150
4	6593	3.86	150
4	6627	3.88	150
4	6661	3.9	150
4	6695	3.92	150
4	6729	3.94	150
4	6763	3.96	150
4	6797	3.98	150
4	6831	4	150
4	6865	4.02	150
4	6899	4.04	150
4	6933	4.06	150
4	6967	4.08	150
4	7001	4.1	150
4	7035	4.12	150
4	7069	4.14	150
4	7103	4.16	150
4	7137	4.18	150
4	7171	4.2	150
4	7205	4.22	150
4	7239	4.24	150
4	7273	4.26	150
4	7307	4.28	150
4	7341	4.3	150
4	7375	4.32	150
4	7409	4.34	150
4	7443	4.36	64
4	7477	4.38	150
4	7511	4.4	150
4	7545	4.42	150
4	7579	4.44	150
4	7613	4.46	150
4	7647	4.48	150
4	7681	4.5	150
4	7715	4.52	150
4	7749	4.54	150
4	7783	4.56	150
4	7817	4.58	150
4	7851	4.6	150
4	7885	4.62	150
4	7919	4.64	150
4	7953	4.66	150
4	7987	4.68	150
4	8021	4.7	150
4	8055	4.72	150
4	8089	4.74	150
4	8123	4.76	150
4	8157	4.78	150
4	8191	4.8	150
4	8225	4.82	150
4	8259	4.84	150
4	8293	4.86	150
4	8327	4.88	150
4	8361	4.9	150
4	8395	4.92	150
4	8429	4.94	150
4	8463	4.96	150
4	8497	4.98	150
4	8531	5	150
4	8565	5.02	150
4	8599	5.04	150
4	8633	5.06	150
4	8667	5.08	150
4	8701	5.1	150
4	8735	5.12	150
4	8769	5.14	150
4	8803	5.16	150
4	8837	5.18	150
4	8871	5.2	150
4	8905	5.22	150
4	8939	5.24	150
4	8973	5.26	150
4	9007	5.28	150
4	9041	5.3	150
4	9075	5.32	150
4	9109	5.34	150
4	9143	5.36	150
4	9177	5.38	150
4	9211	5.4	150
4	9245	5.42	150
4	9279	5.44	150
4	9313	5.46	150
4	9347	5.48	150
4	9381	5.5	150
4	9415	5.52	150
4	9449	5.54	150
4	9483	5.56	150
4	9517	5.58	150
4	9551	5.6	150
4	9585	5.62	150
4	9619	5.64	64
4	9653	5.66	64
4	9687	5.68	64
4	9721	5.7	64
4	9755	5.72	64
4	9789	5.74	150
4	9823	5.76	150
4	9857	5.78	64
4	9891	5.8	64
4	9925	5.82	64
4	9959	5.84	150
4	9993	5.86	150
[...]
51	20595	12.08033304	0.04099912
51	20629	12.10036056	0.04099912
51	20663	12.12036056	0.04099912
51	20697	12.14036056	0.04099912
51	20731	12.16036056	0.04099912
51	20765	12.18036056	0.04099912
51	20799	12.20036056	0.04099912
51	20833	12.22036056	0.04099912
51	20867	12.24036056	0.04099912
51	20901	12.26036056	0.04099912
51	20935	12.28036056	0.04099912
51	20969	12.30036056	0.04099912
51	21003	12.32036056	0.04099912
51	21037	12.34036056	0.04099912
51	21071	12.36036056	0.04099912
51	21105	12.38036056	0.04099912
51	21139	12.40036056	0.04099912
51	21173	12.42036056	0.04099912
51	21207	12.44036056	0.04099912
51	21241	12.46036056	0.04099912
51	21275	12.48036056	0.04099912
51	21309	12.50036056	0.04099912
51	21343	12.52036056	0.04099912
51	21377	12.54036056	0.04099912
51	21411	12.56036056	0.04099912
51	21445	12.58036056	0.04099912
51	21479	12.60036056	0.04099912
51	21513	12.62036056	0.04099912
51	21547	12.64036056	0.04099912
51	21581	12.66036056	0.04099912
51	21615	12.68036056	0.04099912
51	21649	12.70036056	0.04099912
51	21683	12.72036056	0.04099912
51	21717	12.74036056	0.04099912
51	21751	12.76036056	0.04099912
51	21785	12.78036056	0.04099912
51	21819	12.80036056	0.04099912
51	21853	12.82036056	0.04099912
51	21887	12.84036056	0.04099912
51	21921	12.86036056	0.04099912
51	21955	12.88036056	0.04099912
51	21989	12.90036056	0.04099912
51	22023	12.92036056	0.04099912
51	22057	12.94036056	0.04099912
51	22091	12.96036056	0.04099912
51	22125	12.98036056	0.04099912
51	22159	13.00036056	0.04099912
51	22193	13.02036056	0.04099912
51	22227	13.04036056	0.04099912
51	22261	13.06036056	0.04099912
51	22295	13.08036056	0.04099912
51	22329	13.10036056	0.04099912
51	22363	13.12033304	0.04099912
51	22397	13.14033304	0.04099912
51	22431	13.16033304	0.04099912
51	22465	13.18033304	0.04099912
51	22499	13.20033304	0.04099912
51	22533	13.22033304	0.04099912
51	22567	13.24033304	0.04099912
51	22601	13.26033304	0.04099912
51	22635	13.28033304	0.04099912
51	22669	13.30033304	0.04099912
51	22703	13.32033304	0.04099912
51	22737	13.34036056	0.04099912
51	22771	13.36036056	0.04099912
51	22805	13.38036056	0.04099912
51	22839	13.40036056	0.04099912
51	22873	13.42036056	0.04099912
51	22907	13.44036056	0.04099912
51	22941	13.46036056	0.04099912
51	22975	13.48036056	0.04099912
51	23009	13.50033304	0.04099912
51	23043	13.52033304	0.04099912
51	23077	13.54033304	0.04099912
51	23111	13.56033304	0.04099912
51	23145	13.58033304	0.04099912
51	23179	13.60033304	0.04099912
51	23213	13.62033304	0.04099912
51	23247	13.64033304	0.04099912
51	23281	13.66033304	0.04099912
51	23315	13.68033304	0.04099912
51	23349	13.70033304	0.04099912
51	23383	13.72033304	0.04099912
51	23417	13.74033304	0.04099912
51	23451	13.76036056	0.04099912
51	23485	13.78036056	0.04099912
51	23519	13.80036056	0.04099912
51	23553	13.82036056	0.04099912
51	23587	13.84036056	0.04099912
51	23621	13.86036056	0.04099912
51	23655	13.88036056	0.04099912
51	23689	13.90036056	0.04099912
51	23723	13.92036056	0.04099912
51	23757	13.94036056	0.04099912
51	23791	13.96036056	0.04099912
51	23825	13.98036056	0.04099912
51	23859	14.00036056	0.04099912
51	23893	14.02036056	0.04099912
51	23927	14.04036056	0.04099912
51	23961	14.06036056	0.04099912
51	23995	14.08036056	0.04099912
51	24029	14.10036056	0.04099912
51	24063	14.12036056	0.04099912
51	24097	14.14036056	0.04099912
51	24131	14.16036056	0.04099912
51	24165	14.18036056	0.04099912
51	24199	14.20036056	0.04099912
51	24233	14.22036056	0.04099912
51	24267	14.24036056	0.04099912
51	24301	14.26036056	0.04099912
51	24335	14.28036056	0.04099912
51	24369	14.30036056	0.04099912
51	24403	14.32036056	0.04099912
51	24437	14.34036056	0.04099912
51	24471	14.36036056	0.04099912
51	24505	14.38036056	0.04099912
51	24539	14.40036056	0.04099912
51	24573	14.42036056	0.04099912
51	24607	14.44036056	0.04099912
51	24641	14.46036056	0.04099912
51	24675	14.48036056	0.04099912
51	24709	14.50036056	0.04099912
51	24743	14.52036056	0.04099912
51	24777	14.54036056	0.04099912
51	24811	14.56036056	0.04099912
51	24845	14.58036056	0.04099912
51	24879	14.60036056	0.04099912
51	24913	14.62036056	0.04099912
51	24947	14.64036056	0.04099912
51	24981	14.66036056	0.04099912
51	25015	14.68036056	0.04099912
51	25049	14.70036056	0.04099912
51	25083	14.72036056	0.04099912
51	25117	14.74036056	0.04099912
51	25151	14.76036056	0.04099912
51	25185	14.78036056	0.04099912
51	25219	14.80036056	0.04099912
51	25253	14.82036056	0.04099912
51	25287	14.84036056	0.04099912
51	25321	14.86036056	0.04099912
51	25355	14.88036056	0.04099912
51	25389	14.90036056	0.04099912
51	25423	14.92036056	0.04099912
51	25457	14.94036056	0.04099912
51	25491	14.96036056	0.04099912
51	25525	14.98036056	0.04099912
51	25559	15.00036056	0.04099912
51	25593	15.02036056	0.04099912
51	25627	15.04036056	0.04099912
51	25661	15.06036056	0.04099912
51	25695	15.08033304	0.04099912
51	25729	15.10033304	0.04099912
51	25763	15.12033304	0.04099912
51	25797	15.14033304	0.04099912
51	25831	15.16036056	0.04099912
51	25865	15.18036056	0.04099912
51	25899	15.20036056	0.04099912
51	25933	15.22036056	0.04099912
51	25967	15.24036056	0.04099912
51	26001	15.26036056	0.04099912
51	26035	15.28036056	0.04099912
51	26069	15.30036056	0.04099912
51	26103	15.32036056	0.04099912
51	26137	15.34036056	0.04099912
51	26171	15.36036056	0.04099912
51	26205	15.38036056	0.04099912
51	26239	15.40033304	0.04099912
51	26273	15.42033304	0.04099912
51	26307	15.44033304	0.04099912
51	26341	15.46033304	0.04099912
51	26375	15.48033304	0.04099912
51	26409	15.50033304	0.04099912
51	26443	15.52036056	0.04099912
51	26477	15.54033304	0.04099912
51	26511	15.56036056	0.04099912
51	26545	15.58033304	0.04099912
51	26579	15.60033304	0.04099912
51	26613	15.62033304	0.04099912
51	26647	15.64033304	0.04099912
51	26681	15.66033304	0.04099912
51	26715	15.68033304	0.04099912
51	26749	15.70033304	0.04099912
51	26783	15.72033304	0.04099912
51	26817	15.74033304	0.04099912
51	26851	15.76036056	0.04099912
51	26885	15.78033304	0.04099912
51	26919	15.80033304	0.04099912
51	26953	15.82036056	0.04099912
51	26987	15.84033304	0.04099912
51	27021	15.86033304	0.04099912
51	27055	15.88033304	0.04099912
51	27089	15.90033304	0.04099912
51	27123	15.92033304	0.04099912
51	27157	15.94033304	0.04099912
51	27191	15.96033304	0.04099912
51	27225	15.98033304	0.04099912
51	27259	16.00033304	0.04099912
51	27293	16.02033304	0.04099912
51	27327	16.04033304	0.04099912
51	27361	16.06036056	0.04099912
51	27395	16.08033304	0.04099912
51	27429	16.10033304	0.04099912
51	27463	16.12033304	0.04099912
51	27497	16.14033304	0.04099912
51	27531	16.16033304	0.04099912
51	27565	16.18033304	0.04099912
51	27599	16.20033304	0.04099912
51	27633	16.22033304	0.04099912
51	27667	16.24033304	0.04099912
51	27701	16.26033304	0.04099912
51	27735	16.28033304	0.04099912
51	27769	16.30033304	0.04099912
51	27803	16.32033304	0.04099912
51	27837	16.34033304	0.04099912
51	27871	16.36033304	0.04099912
51	27905	16.38033304	0.04099912
51	27939	16.40033304	0.04099912
51	27973	16.42033304	0.04099912
51	28007	16.44033304	0.04099912
51	28041	16.46033304	0.04099912
51	28075	16.48036056	0.04099912
51	28109	16.50036056	0.04099912
51	28143	16.52036056	0.04099912
51	28177	16.54036056	0.04099912
51	28211	16.56036056	0.04099912
51	28245	16.58033304	0.04099912
51	28279	16.60036056	0.04099912
51	28313	16.62036056	0.04099912
51	28347	16.64036056	0.04099912
51	28381	16.66036056	0.04099912
51	28415	16.68036056	0.04099912
51	28449	16.70036056	0.04099912
51	28483	16.72033304	0.04099912
51	28517	16.74036056	0.04099912
51	28551	16.76036056	0.04099912
51	28585	16.78036056	0.04099912
51	28619	16.80036056	0.04099912
51	28653	16.82033304	0.04099912
51	28687	16.84033304	0.04099912
51	28721	16.86033304	0.04099912
51	28755	16.88036056	0.04099912
51	28789	16.90033304	0.04099912
51	28823	16.92033304	0.04099912
51	28857	16.94033304	0.04099912
51	28891	16.96033304	0.04099912
51	28925	16.98033304	0.04099912
51	28959	17.00033304	0.04099912
51	28993	17.02033304	0.04099912
51	29027	17.04033304	0.04099912
51	29061	17.06033304	0.04099912
51	29095	17.08033304	0.04099912
51	29129	17.10033304	0.04099912
51	29163	17.12036056	0.04099912
51	29197	17.14033304	0.04099912
51	29231	17.16033304	0.04099912
51	29265	17.18033304	0.04099912
51	29299	17.20033304	0.04099912
51	29333	17.22033304	0.04099912
51	29367	17.24033304	0.04099912
51	29401	17.26033304	0.04099912
51	29435	17.28033304	0.04099912
51	29469	17.30033304	0.04099912
51	29503	17.32033304	0.04099912
51	29537	17.34036056	0.04099912
51	29571	17.36036056	0.04099912
51	29605	17.38036056	0.04099912
51	29639	17.40036056	0.04099912
51	29673	17.42036056	0.04099912
51	29707	17.44033304	0.04099912
51	29741	17.46033304	0.04099912
51	29775	17.48033304	0.04099912
51	29809	17.50033304	0.04099912
51	29843	17.52033304	0.04099912
51	29877	17.54036056	0.04099912
51	29911	17.56036056	0.04099912
51	29945	17.58033304	0.04099912
51	29979	17.60033304	0.04099912
51	30013	17.62036056	0.04099912
51	30047	17.64036056	0.04099912
51	30081	17.66036056	0.04099912
51	30115	17.68036056	0.04099912
51	30149	17.70036056	0.04099912
51	30183	17.72036056	0.04099912
51	30217	17.74036056	0.04099912
51	30251	17.76036056	0.04099912
51	30285	17.78036056	0.04099912
51	30319	17.80036056	0.04099912
51	30353	17.82036056	0.04099912
51	30387	17.84036056	0.04099912
51	30421	17.86036056	0.04099912
51	30455	17.88036056	0.04099912
51	30489	17.90036056	0.04099912
51	30523	17.92036056	0.04099912
51	30557	17.94036056	0.04099912
51	30591	17.96036056	0.04099912
51	30625	17.98036056	0.04099912
51	30659	18.00036056	0.04099912
51	30693	18.02036056	0.04099912
51	30727	18.04036056	0.04099912
51	30761	18.06036056	0.04099912
51	30795	18.08036056	0.04099912
51	30829	18.10036056	0.04099912
51	30863	18.12036056	0.04099912
51	30897	18.14036056	0.04099912
51	30931	18.16036056	0.04099912
51	30965	18.18036056	0.04099912
51	30999	18.20036056	0.04099912
51	31033	18.22036056	0.04099912
51	31067	18.24036056	0.04099912
51	31101	18.26036056	0.04099912
51	31135	18.28036056	0.04099912
51	31169	18.30036056	0.04099912
51	31203	18.32036056	0.04099912
51	31237	18.34036056	0.04099912
51	31271	18.36036056	0.04099912
51	31305	18.38036056	0.04099912
51	31339	18.40036056	0.04099912
51	31373	18.42036056	0.04099912
51	31407	18.44036056	0.04099912
51	31441	18.46036056	0.04099912
51	31475	18.48036056	0.04099912
51	31509	18.50036056	0.04099912
51	31543	18.52036056	0.04099912
51	31577	18.54036056	0.04099912
51	31611	18.56036056	0.04099912
51	31645	18.58036056	0.04099912
51	31679	18.60036056	0.04099912
51	31713	18.62036056	0.04099912
51	31747	18.64036056	0.04099912
51	31781	18.66036056	0.04099912
51	31815	18.68036056	0.04099912
51	31849	18.70036056	0.04099912
51	31883	18.72036056	0.04099912
51	31917	18.74036056	0.04099912
51	31951	18.76036056	0.04099912
51	31985	18.78036056	0.04099912
51	32019	18.80036056	0.04099912
51	32053	18.82036056	0.04099912
51	32087	18.84036056	0.04099912
51	32121	18.86036056	0.04099912
51	32155	18.88036056	0.04099912
51	32189	18.90036056	0.04099912
51	32223	18.92036056	0.04099912
51	32257	18.94036056	0.04099912
51	32291	18.96036056	0.04099912
51	32325	18.98036056	0.04099912
51	32359	19.00036056	0.04099912
51	32393	19.02036056	0.04099912
51	32427	19.04036056	0.04099912
51	32461	19.06036056	0.04099912
51	32495	19.08036056	0.04099912
51	32529	19.10036056	0.04099912
51	32563	19.12036056	0.04099912
51	32597	19.14036056	0.04099912
51	32631	19.16033304	0.04099912
51	32665	19.18036056	0.04099912
51	32699	19.20036056	0.04099912
51	32733	19.22036056	0.04099912
51	32767	19.24036056	0.04099912
51	32801	19.26036056	0.04099912
51	32835	19.28036056	0.04099912
51	32869	19.30036056	0.04099912
51	32903	19.32036056	0.04099912
51	32937	19.34036056	0.04099912
51	32971	19.36036056	0.04099912
51	33005	19.38036056	0.04099912
51	33039	19.40036056	0.04099912
51	33073	19.42036056	0.04099912
51	33107	19.44036056	0.04099912
51	33141	19.46036056	0.04099912
51	33175	19.48036056	0.04099912
51	33209	19.50036056	0.04099912
51	33243	19.52036056	0.04099912
51	33277	19.54036056	0.04099912
51	33311	19.56036056	0.04099912
51	33345	19.58036056	0.04099912
51	33379	19.60036056	0.04099912
51	33413	19.62036056	0.04099912
51	33447	19.64036056	0.04099912
51	33481	19.66036056	0.04099912
51	33515	19.68036056	0.04099912
51	33549	19.70036056	0.04099912
51	33583	19.72036056	0.04099912
51	33617	19.74036056	0.04099912
51	33651	19.76036056	0.04099912
51	33685	19.78036056	0.04099912
51	33719	19.80033304	0.04099912
51	33753	19.82033304	0.04099912
51	33787	19.84033304	0.04099912
51	33821	19.86033304	0.04099912
51	33855	19.88033304	0.04099912
51	33889	19.90033304	0.04099912
51	33923	19.92033304	0.04099912
51	33957	19.94033304	0.04099912
51	33991	19.96033304	0.04099912
51	34025	19.98033304	0.04099912
51	34059	20.00033304	0.04099912
51	34093	20.02033304	0.04099912
51	34127	20.04033304	0.04099912
51	34161	20.06036056	0.04099912
51	34195	20.08036056	0.04099912
51	34229	20.10036056	0.04099912
51	34263	20.12036056	0.04099912
51	34297	20.14036056	0.04099912
51	34331	20.16036056	0.04099912
51	34365	20.18036056	0.04099912
51	34399	20.20036056	0.04099912
51	34433	20.22036056	0.04099912
51	34467	20.24033304	0.04099912
51	34501	20.26036056	0.04099912
51	34535	20.28033304	0.04099912
51	34569	20.30036056	0.04099912
51	34603	20.32036056	0.04099912
51	34637	20.34033304	0.04099912
51	34671	20.36033304	0.04099912
51	34705	20.38036056	0.04099912
51	34739	20.40036056	0.04099912
51	34773	20.42036056	0.04099912
51	34807	20.44036056	0.04099912
51	34841	20.46036056	0.04099912
51	34875	20.48036056	0.04099912
51	34909	20.50036056	0.04099912
51	34943	20.52036056	0.04099912
51	34977	20.54036056	0.04099912
51	35011	20.56036056	0.04099912
51	35045	20.58036056	0.04099912
51	35079	20.60036056	0.04099912
51	35113	20.62036056	0.04099912
51	35147	20.64036056	0.04099912
51	35181	20.66036056	0.04099912
51	35215	20.68036056	0.04099912
51	35249	20.70036056	0.04099912
51	35283	20.72036056	0.04099912
51	35317	20.74036056	0.04099912
51	35351	20.76036056	0.04099912
51	35385	20.78036056	0.04099912
51	35419	20.80036056	0.04099912
51	35453	20.82036056	0.04099912
51	35487	20.84036056	0.04099912
51	35521	20.86036056	0.04099912
51	35555	20.88036056	0.04099912
51	35589	20.90036056	0.04099912
51	35623	20.92036056	0.04099912
51	35657	20.94036056	0.04099912
51	35691	20.96036056	0.04099912
51	35725	20.98036056	0.04099912
51	35759	21.00036056	0.04099912
51	35793	21.02036056	0.04099912
51	35827	21.04036056	0.04099912
51	35861	21.06036056	0.04099912
51	35895	21.08036056	0.04099912
51	35929	21.10036056	0.04099912
51	35963	21.12036056	0.04099912
51	35997	21.14036056	0.04099912
51	36031	21.16036056	0.04099912
51	36065	21.18036056	0.04099912
51	36099	21.20036056	0.04099912
51	36133	21.22036056	0.04099912
51	36167	21.24036056	0.04099912
51	36201	21.26036056	0.04099912
51	36235	21.28036056	0.04099912
51	36269	21.30036056	0.04099912
51	36303	21.32036056	0.04099912
51	36337	21.34036056	0.04099912
51	36371	21.36036056	0.04099912
51	36405	21.38036056	0.04099912
51	36439	21.40036056	0.04099912
51	36473	21.42036056	0.04099912
51	36507	21.44036056	0.04099912
51	36541	21.46036056	0.04099912
51	36575	21.48036056	0.04099912
51	36609	21.50036056	0.04099912
51	36643	21.52036056	0.04099912
51	36677	21.54036056	0.04099912
51	36711	21.56036056	0.04099912
51	36745	21.58036056	0.04099912
51	36779	21.60036056	0.04099912
51	36813	21.62036056	0.04099912
51	36847	21.64036056	0.04099912
51	36881	21.66036056	0.04099912
51	36915	21.68036056	0.04099912
51	36949	21.70036056	0.04099912
51	36983	21.72036056	0.04099912
51	37017	21.74036056	0.04099912
51	37051	21.76036056	0.04099912
51	37085	21.78036056	0.04099912
51	37119	21.80036056	0.04099912
51	37153	21.82036056	0.04099912
51	37187	21.84036056	0.04099912
51	37221	21.86033304	0.04099912
51	37255	21.88033304	0.04099912
51	37289	21.90033304	0.04099912
51	37323	21.92033304	0.04099912
51	37357	21.94033304	0.04099912
51	37391	21.96033304	0.04099912
51	37425	21.98033304	0.04099912
51	37459	22.00033304	0.04099912
51	37493	22.02033304	0.04099912
51	37527	22.04033304	0.04099912
51	37561	22.06033304	0.04099912
51	37595	22.08033304	0.04099912
51	37629	22.10033304	0.04099912
51	37663	22.12033304	0.04099912
51	37697	22.14033304	0.04099912
51	37731	22.16033304	0.04099912
51	37765	22.18033304	0.04099912
51	37799	22.20033304	0.04099912
51	37833	22.22033304	0.04099912
51	37867	22.24033304	0.04099912
51	37901	22.26033304	0.04099912
51	37935	22.28033304	0.04099912
51	37969	22.30033304	0.04099912
51	38003	22.32033304	0.04099912
51	38037	22.34033304	0.04099912
51	38071	22.36033304	0.04099912
51	38105	22.38033304	0.04099912
51	38139	22.40033304	0.04099912
51	38173	22.42033304	0.04099912
51	38207	22.44033304	0.04099912
51	38241	22.46033304	0.04099912
51	38275	22.48033304	0.04099912
51	38309	22.50033304	0.04099912
51	38343	22.52033304	0.04099912
51	38377	22.54033304	0.04099912
51	38411	22.56033304	0.04099912
51	38445	22.58033304	0.04099912
51	38479	22.60033304	0.04099912
51	38513	22.62033304	0.04099912
51	38547	22.64033304	0.04099912
51	38581	22.66033304	0.04099912
51	38615	22.68033304	0.04099912
51	38649	22.70033304	0.04099912
51	38683	22.72033304	0.04099912
51	38717	22.74033304	0.04099912
51	38751	22.76033304	0.04099912
51	38785	22.78033304	0.04099912
51	38819	22.80033304	0.04099912
51	38853	22.82033304	0.04099912
51	38887	22.84033304	0.04099912
51	38921	22.86033304	0.04099912
51	38955	22.88033304	0.04099912
51	38989	22.90033304	0.04099912
51	39023	22.92033304	0.04099912
51	39057	22.94033304	0.04099912
51	39091	22.96033304	0.04099912
51	39125	22.98033304	0.04099912
51	39159	23.00033304	0.04099912
51	39193	23.02033304	0.04099912
51	39227	23.04033304	0.04099912
51	39261	23.06033304	0.04099912
51	39295	23.08033304	0.04099912
51	39329	23.10033304	0.04099912
51	39363	23.12033304	0.04099912
51	39397	23.14033304	0.04099912
51	39431	23.16033304	0.04099912
51	39465	23.18033304	0.04099912
51	39499	23.20033304	0.04099912
51	39533	23.22033304	0.04099912
51	39567	23.24033304	0.04099912
51	39601	23.26033304	0.04099912
51	39635	23.28036056	0.04099912
51	39669	23.30036056	0.04099912
51	39703	23.32036056	0.04099912
51	39737	23.34036056	0.04099912
51	39771	23.36033304	0.04099912
51	39805	23.38036056	0.04099912
51	39839	23.40036056	0.04099912
51	39873	23.42036056	0.04099912
51	39907	23.44036056	0.04099912
51	39941	23.46036056	0.04099912
51	39975	23.48036056	0.04099912
51	40009	23.50036056	0.04099912
51	40043	23.52036056	0.04099912
51	40077	23.54036056	0.04099912
51	40111	23.56036056	0.04099912
51	40145	23.58036056	0.04099912
51	40179	23.60036056	0.04099912
51	40213	23.62036056	0.04099912
51	40247	23.64036056	0.04099912
51	40281	23.66036056	0.04099912
51	40315	23.68036056	0.04099912
51	40349	23.70036056	0.04099912
51	40383	23.72036056	0.04099912
51	40417	23.74036056	0.04099912
51	40451	23.76036056	0.04099912
51	40485	23.78036056	0.04099912
51	40519	23.80036056	0.04099912
51	40553	23.82036056	0.04099912
51	40587	23.84036056	0.04099912
51	40621	23.86036056	0.04099912
51	40655	23.88036056	0.04099912
51	40689	23.90036056	0.04099912
51	40723	23.92036056	0.04099912
51	40757	23.94036056	0.04099912
51	40791	23.96036056	0.04099912
51	40825	23.98036056	0.04099912
51	40859	24.00036056	0.04099912
51	40893	24.02036056	0.04099912
51	40927	24.04036056	0.04099912
51	40961	24.06036056	0.04099912
51	40995	24.08036056	0.04099912
51	41029	24.10036056	0.04099912
51	41063	24.12036056	0.04099912
51	41097	24.14036056	0.04099912
51	41131	24.16036056	0.04099912
51	41165	24.18036056	0.04099912
51	41199	24.20036056	0.04099912
51	41233	24.22036056	0.04099912
51	41267	24.24036056	0.04099912
51	41301	24.26036056	0.04099912
51	41335	24.28033304	0.04099912
51	41369	24.30036056	0.04099912
51	41403	24.32033304	0.04099912
51	41437	24.34033304	0.04099912
51	41471	24.36033304	0.04099912
51	41505	24.38033304	0.04099912
51	41539	24.40033304	0.04099912
51	41573	24.42033304	0.04099912
51	41607	24.44033304	0.04099912
51	41641	24.46033304	0.04099912
51	41675	24.48033304	0.04099912
51	41709	24.50033304	0.04099912
51	41743	24.52033304	0.04099912
51	41777	24.54033304	0.04099912

