version 2
run Simple-Dash-0-20190602-18:03:03-21634
attr configname Simple-Dash
attr datetime 20190602-18:03:03
attr experiment Simple-Dash
attr inifile simple_omnetpp.ini
attr iterationvars ""
attr iterationvarsf ""
attr measurement ""
attr network scenario
attr processid 21634
attr repetition 0
attr replication #0
attr resultdir results
attr runnumber 0
attr seedset 0
param **.client*.app[*].typename "\"DashClient\""
param **.client*.app[*].localAddress "\"client\""
param **.client*.app[*].connectAddress "\"server\""
param **.client*.app[*].connectPort 1000
param **.server.app[*].typename "\"TcpGenericServerApp\""
param **.server.app[*].localAddress "\"server\""
param **.server.app[*].localPort 1000
param **.client.numApps 1
param **.server.numApps 1
param **.tcp.advertisedWindow 65535
param **.tcp.delayedAcksEnabled false
param **.tcp.nagleEnabled true
param **.tcp.limitedTransmitEnabled false
param **.tcp.increasedIWEnabled false
param **.tcp.sackSupport false
param **.tcp.windowScalingSupport false
param **.tcp.timestampSupport false
param **.tcp.mss 1452
param **.tcp.tcpAlgorithmClass "\"TcpReno\""
param **.tcp.recordStats true

vector 0 scenario.client.ppp[0].queue queueLength:vector ETV
attr interpolationmode sample-hold
attr title "queue length, vector"
vector 1 scenario.client.ppp[0].ppp transmissionState:vector ETV
attr interpolationmode sample-hold
attr source transmissionStateChanged
attr title "tx state, vector"
vector 2 scenario.server.ppp[0].queue queueLength:vector ETV
attr interpolationmode sample-hold
attr title "queue length, vector"
vector 3 scenario.server.ppp[0].ppp transmissionState:vector ETV
attr interpolationmode sample-hold
attr source transmissionStateChanged
attr title "tx state, vector"
vector 4 scenario.client.app[0] DASH_seg_cmplt:vector ETV
attr title "Segment Received, vector"
vector 5 scenario.client.tcp tcpRcvQueueBytes ETV
vector 6 scenario.client.tcp "advertised window" ETV
vector 7 scenario.client.tcp "receive window" ETV
vector 8 scenario.client.tcp "sent ack" ETV
vector 9 scenario.client.ppp[0].queue packetReceived:vector(packetBytes) ETV
attr interpolationmode none
attr title "received packets, vector(packetBytes)"
vector 10 scenario.client.ppp[0].queue queueingTime:vector ETV
attr interpolationmode none
attr title "queueing time, vector"
vector 11 scenario.client.ppp[0].ppp rcvdPkFromHl:vector(packetBytes) ETV
attr interpolationmode none
attr source packetReceivedFromUpper
attr title "packets received from higher layer, vector(packetBytes)"
vector 12 scenario.client.ppp[0].ppp txPk:vector(packetBytes) ETV
attr interpolationmode none
attr source packetSentToLower
attr title "packets transmitted, vector(packetBytes)"
vector 13 scenario.server.ppp[0].ppp rxPkOk:vector(packetBytes) ETV
attr interpolationmode none
attr source rxPkOk
attr title "packets received OK, vector(packetBytes)"
vector 14 scenario.server.ppp[0].ppp passedUpPk:vector(packetBytes) ETV
attr interpolationmode none
attr source packetSentToUpper
attr title "packets passed to higher layer, vector(packetBytes)"
vector 15 scenario.server.tcp "rcvd seq" ETV
vector 16 scenario.server.tcp "rcvd ack" ETV
vector 17 scenario.server.tcp "advertised window" ETV
vector 18 scenario.server.tcp "send window" ETV
vector 19 scenario.server.tcp tcpRcvQueueBytes ETV
vector 20 scenario.server.tcp "receive window" ETV
vector 21 scenario.server.tcp "sent ack" ETV
vector 22 scenario.server.ppp[0].queue packetReceived:vector(packetBytes) ETV
attr interpolationmode none
attr title "received packets, vector(packetBytes)"
vector 23 scenario.server.ppp[0].queue queueingTime:vector ETV
attr interpolationmode none
attr title "queueing time, vector"
vector 24 scenario.server.ppp[0].ppp rcvdPkFromHl:vector(packetBytes) ETV
attr interpolationmode none
attr source packetReceivedFromUpper
attr title "packets received from higher layer, vector(packetBytes)"
vector 25 scenario.server.ppp[0].ppp txPk:vector(packetBytes) ETV
attr interpolationmode none
attr source packetSentToLower
attr title "packets transmitted, vector(packetBytes)"
vector 26 scenario.client.ppp[0].ppp rxPkOk:vector(packetBytes) ETV
attr interpolationmode none
attr source rxPkOk
attr title "packets received OK, vector(packetBytes)"
vector 27 scenario.client.ppp[0].ppp passedUpPk:vector(packetBytes) ETV
attr interpolationmode none
attr source packetSentToUpper
attr title "packets passed to higher layer, vector(packetBytes)"
vector 28 scenario.client.tcp "rcvd seq" ETV
vector 29 scenario.client.tcp "rcvd ack" ETV
vector 30 scenario.client.tcp "send window" ETV
vector 31 scenario.client.tcp "sent seq" ETV
vector 32 scenario.client.tcp "unacked bytes" ETV
vector 33 scenario.server.tcp "unacked bytes" ETV
vector 34 scenario.server.tcp "rcvd dupAcks" ETV
vector 35 scenario.server.app[0] packetReceived:vector(packetBytes) ETV
attr interpolationmode none
attr source packetReceived
attr title "packets received, vector(packetBytes)"
vector 36 scenario.server.app[0] packetSent:vector(packetBytes) ETV
attr interpolationmode none
attr source packetSent
attr title "packets sent, vector(packetBytes)"
vector 37 scenario.server.tcp "sent seq" ETV
vector 38 scenario.client.tcp "measured RTT" ETV
vector 39 scenario.client.tcp "smoothed RTT" ETV
vector 40 scenario.client.tcp RTTVAR ETV
vector 41 scenario.client.tcp RTO ETV
vector 42 scenario.client.tcp cwnd ETV
vector 43 scenario.client.tcp "rcvd dupAcks" ETV
vector 44 scenario.server.tcp "measured RTT" ETV
vector 45 scenario.server.tcp "smoothed RTT" ETV
vector 46 scenario.server.tcp RTTVAR ETV
vector 47 scenario.server.tcp RTO ETV
vector 48 scenario.server.tcp cwnd ETV
0	0	0	0
0	24	1.0000818	1
0	25	1.0001194	0
0	330	1.0220998	1
0	331	1.0221374	0
0	633	1.04408	1
0	634	1.0441176	0
0	936	1.0660602	1
0	937	1.0660978	0
0	1239	1.0880404	1
0	1240	1.088078	0
0	1542	1.1100206	1
0	1543	1.1100582	0
0	1845	1.1320008	1
0	1846	1.1320384	0
0	2148	1.153981	1
0	2149	1.1540186	0
0	2451	1.1759612	1
0	2452	1.1759988	0
0	2754	1.1979414	1
0	2755	1.197979	0
0	3057	1.2199216	1
0	3058	1.2199592	0
0	3360	1.2419018	1
0	3361	1.2419394	0
0	3663	1.263882	1
0	3664	1.2639196	0
0	3966	1.2858622	1
0	3967	1.2858998	0
0	4269	1.3078424	1
0	4270	1.30788	0
0	4572	1.3298226	1
0	4573	1.3298602	0
0	4875	1.3518028	1
0	4876	1.3518404	0
0	5178	1.373783	1
0	5179	1.3738206	0
0	5481	1.3957632	1
0	5482	1.3958008	0
0	5784	1.4177434	1
0	5785	1.417781	0
0	6087	1.4397236	1
0	6088	1.4397612	0
0	6390	1.4617038	1
0	6391	1.4617414	0
0	6693	1.483684	1
0	6694	1.4837216	0
0	6996	1.5056642	1
0	6997	1.5057018	0
0	7299	1.5276444	1
0	7300	1.527682	0
0	7602	1.5496246	1
0	7603	1.5496622	0
0	7905	1.5716048	1
0	7906	1.5716424	0
0	8208	1.593585	1
0	8209	1.5936226	0
0	8511	1.6155652	1
0	8512	1.6156028	0
0	8814	1.6375454	1
0	8815	1.637583	0
0	9117	1.6595256	1
0	9118	1.6595632	0
0	9420	1.6815058	1
0	9421	1.6815434	0
0	9723	1.703486	1
0	9724	1.7035236	0
0	10026	1.7254662	1
0	10027	1.7255038	0
0	10329	1.7474464	1
0	10330	1.747484	0
0	10632	1.7694266	1
0	10633	1.7694642	0
0	10935	1.7914068	1
0	10936	1.7914444	0
0	11238	1.813387	1
0	11239	1.8134246	0
0	11541	1.8353672	1
0	11542	1.8354048	0
0	11844	1.8573474	1
0	11845	1.857385	0
0	12147	1.8793276	1
0	12148	1.8793652	0
0	12450	1.9013078	1
0	12451	1.9013454	0
0	12753	1.923288	1
0	12754	1.9233256	0
0	13056	1.9452682	1
0	13057	1.9453058	0
0	13359	1.9672484	1
0	13360	1.967286	0
0	13662	1.9892286	1
0	13663	1.9892662	0
0	13965	2.0112088	1
0	13966	2.0112464	0
0	14268	2.033189	1
0	14269	2.0332266	0
0	14571	2.0551692	1
0	14572	2.0552068	0
0	14874	2.0771494	1
0	14875	2.077187	0
0	15177	2.0991296	1
0	15178	2.0991672	0
0	15480	2.1211098	1
0	15481	2.1211474	0
0	15783	2.14309	1
0	15784	2.1431276	0
0	16086	2.1650702	1
0	16087	2.1651078	0
0	16389	2.1870504	1
0	16390	2.187088	0
0	16692	2.2090306	1
0	16693	2.2090682	0
0	16995	2.2310108	1
0	16996	2.2310484	0
0	17298	2.252991	1
0	17299	2.2530286	0
0	17601	2.2749712	1
0	17602	2.2750088	0
0	17904	2.2969514	1
0	17905	2.296989	0
0	18207	2.3189316	1
0	18208	2.3189692	0
0	18510	2.3409118	1
0	18511	2.3409494	0
0	18813	2.362892	1
0	18814	2.3629296	0
0	19116	2.3848722	1
0	19117	2.3849098	0
0	19419	2.4068524	1
0	19420	2.40689	0
0	19722	2.4288326	1
0	19723	2.4288702	0
0	20025	2.4508128	1
0	20026	2.4508504	0
0	20328	2.472793	1
0	20329	2.4728306	0
0	20631	2.4947732	1
0	20632	2.4948108	0
0	20934	2.5167534	1
0	20935	2.516791	0
0	21237	2.5387336	1
0	21238	2.5387712	0
0	21540	2.5607138	1
0	21541	2.5607514	0
0	21843	2.582694	1
0	21844	2.5827316	0
0	22146	2.6046742	1
0	22147	2.6047118	0
0	22449	2.6266544	1
0	22450	2.626692	0
0	22752	2.6486346	1
0	22753	2.6486722	0
0	23055	2.6706148	1
0	23056	2.6706524	0
0	23358	2.692595	1
0	23359	2.6926326	0
0	23661	2.7145752	1
0	23662	2.7146128	0
0	23964	2.7365554	1
0	23965	2.736593	0
0	24267	2.7585356	1
0	24268	2.7585732	0
0	24570	2.7805158	1
0	24571	2.7805534	0
0	24873	2.802496	1
0	24874	2.8025336	0
0	25176	2.8244762	1
0	25177	2.8245138	0
0	25479	2.8464564	1
0	25480	2.846494	0
0	25782	2.8684366	1
0	25783	2.8684742	0
0	26085	2.8904168	1
0	26086	2.8904544	0
0	26388	2.912397	1
0	26389	2.9124346	0
0	26691	2.9343772	1
0	26692	2.9344148	0
0	26994	2.9563574	1
0	26995	2.956395	0
0	27297	2.9783376	1
0	27298	2.9783752	0
0	27600	3.0003178	1
0	27601	3.0003554	0
0	27903	3.022298	1
0	27904	3.0223356	0
0	28206	3.0442782	1
0	28207	3.0443158	0
0	28509	3.0662584	1
0	28510	3.066296	0
0	28812	3.0882386	1
0	28813	3.0882762	0
0	29115	3.1102188	1
0	29116	3.1102564	0
0	29418	3.132199	1
0	29419	3.1322366	0
0	29721	3.1541792	1
0	29722	3.1542168	0
0	30024	3.1761594	1
0	30025	3.176197	0
0	30327	3.1981396	1
0	30328	3.1981772	0
0	30630	3.2201198	1
0	30631	3.2201574	0
0	30933	3.2421	1
0	30934	3.2421376	0
0	31236	3.2640802	1
0	31237	3.2641178	0
0	31539	3.2860604	1
0	31540	3.286098	0
0	31842	3.3080406	1
0	31843	3.3080782	0
0	32145	3.3300208	1
0	32146	3.3300584	0
0	32448	3.352001	1
0	32449	3.3520386	0
0	32751	3.3739812	1
0	32752	3.3740188	0
0	33054	3.3959614	1
0	33055	3.395999	0
0	33357	3.4179416	1
0	33358	3.4179792	0
0	33660	3.4399218	1
0	33661	3.4399594	0
0	33963	3.461902	1
0	33964	3.4619396	0
0	34266	3.4838822	1
0	34267	3.4839198	0
0	34569	3.5058624	1
0	34570	3.5059	0
0	34872	3.5278426	1
0	34873	3.5278802	0
0	35175	3.5498228	1
0	35176	3.5498604	0
0	35478	3.571803	1
0	35479	3.5718406	0
0	35781	3.5937832	1
0	35782	3.5938208	0
0	36084	3.6157634	1
0	36085	3.615801	0
0	36387	3.6377436	1
0	36388	3.6377812	0
0	36690	3.6597238	1
0	36691	3.6597614	0
0	36993	3.681704	1
0	36994	3.6817416	0
0	37296	3.7036842	1
0	37297	3.7037218	0
0	37599	3.7256644	1
0	37600	3.725702	0
0	37902	3.7476446	1
0	37903	3.7476822	0
0	38205	3.7696248	1
0	38206	3.7696624	0
0	38508	3.791605	1
0	38509	3.7916426	0
0	38811	3.8135852	1
0	38812	3.8136228	0
0	39114	3.8355654	1
0	39115	3.835603	0
0	39417	3.8575456	1
0	39418	3.8575832	0
0	39720	3.8795258	1
0	39721	3.8795634	0
0	40023	3.901506	1
0	40024	3.9015436	0
0	40326	3.9234862	1
0	40327	3.9235238	0
0	40629	3.9454664	1
0	40630	3.945504	0
0	40932	3.9674466	1
0	40933	3.9674842	0
0	41235	3.9894268	1
0	41236	3.9894644	0
0	41538	4.011407	1
0	41539	4.0114446	0
0	41841	4.0333872	1
0	41842	4.0334248	0
0	42144	4.0553674	1
0	42145	4.055405	0
0	42447	4.0773476	1
0	42448	4.0773852	0
0	42750	4.0993278	1
0	42751	4.0993654	0
0	43053	4.121308	1
0	43054	4.1213456	0
0	43356	4.1432882	1
0	43357	4.1433258	0
0	43659	4.1652684	1
0	43660	4.165306	0
0	43962	4.1872486	1
0	43963	4.1872862	0
0	44265	4.2092288	1
0	44266	4.2092664	0
0	44568	4.231209	1
0	44569	4.2312466	0
0	44871	4.2531892	1
0	44872	4.2532268	0
0	45174	4.2751694	1
0	45175	4.275207	0
1	0	0	0
1	6	1	1
1	7	1.0000408	0
1	22	1.0000818	1
1	25	1.0001194	0
1	26	1.0001194	1
1	33	1.000317	0
1	56	1.001554	1
1	57	1.0015916	0
1	74	1.002791	1
1	75	1.0028286	0
1	91	1.0039902	1
1	92	1.0040278	0
1	108	1.0051894	1
1	109	1.005227	0
1	125	1.0063886	1
1	126	1.0064262	0
1	142	1.0075878	1
1	143	1.0076254	0
1	159	1.008787	1
1	160	1.0088246	0
1	176	1.0099862	1
1	177	1.0100238	0
1	193	1.0111854	1
1	194	1.011223	0
1	210	1.0123846	1
1	211	1.0124222	0
1	223	1.0135838	1
1	224	1.0136214	0
1	236	1.014783	1
1	237	1.0148206	0
1	249	1.0159822	1
1	250	1.0160198	0
1	262	1.0171814	1
1	263	1.017219	0
1	275	1.0183806	1
1	276	1.0184182	0
1	288	1.0195798	1
1	289	1.0196174	0
1	301	1.020779	1
1	302	1.0208166	0
1	314	1.0219782	1
1	315	1.0220158	0
1	328	1.0220998	1
1	331	1.0221374	0
1	332	1.0221374	1
1	336	1.022335	0
1	396	1.023572	1
1	397	1.0236096	0
1	409	1.0247712	1
1	410	1.0248088	0
1	422	1.0259704	1
1	423	1.026008	0
1	435	1.0271696	1
1	436	1.0272072	0
1	448	1.0283688	1
1	449	1.0284064	0
1	461	1.029568	1
1	462	1.0296056	0
1	474	1.0307672	1
1	475	1.0308048	0
1	487	1.0319664	1
1	488	1.032004	0
1	500	1.0331656	1
1	501	1.0332032	0
1	513	1.0343648	1
1	514	1.0344024	0
1	526	1.035564	1
1	527	1.0356016	0
1	539	1.0367632	1
1	540	1.0368008	0
1	552	1.0379624	1
1	553	1.038	0
1	565	1.0391616	1
1	566	1.0391992	0
1	578	1.0403608	1
1	579	1.0403984	0
1	591	1.04156	1
1	592	1.0415976	0
1	604	1.0427592	1
1	605	1.0427968	0
1	617	1.0439584	1
1	618	1.043996	0
1	631	1.04408	1
1	634	1.0441176	0
1	635	1.0441176	1
1	639	1.0443152	0
1	699	1.0455522	1
1	700	1.0455898	0
1	712	1.0467514	1
1	713	1.046789	0
1	725	1.0479506	1
1	726	1.0479882	0
1	738	1.0491498	1
1	739	1.0491874	0
1	751	1.050349	1
1	752	1.0503866	0
1	764	1.0515482	1
1	765	1.0515858	0
1	777	1.0527474	1
1	778	1.052785	0
1	790	1.0539466	1
1	791	1.0539842	0
1	803	1.0551458	1
1	804	1.0551834	0
1	816	1.056345	1
1	817	1.0563826	0
1	829	1.0575442	1
1	830	1.0575818	0
1	842	1.0587434	1
1	843	1.058781	0
1	855	1.0599426	1
1	856	1.0599802	0
1	868	1.0611418	1
1	869	1.0611794	0
1	881	1.062341	1
1	882	1.0623786	0
1	894	1.0635402	1
1	895	1.0635778	0
1	907	1.0647394	1
1	908	1.064777	0
1	920	1.0659386	1
1	921	1.0659762	0
1	934	1.0660602	1
1	937	1.0660978	0
1	938	1.0660978	1
1	942	1.0662954	0
1	1002	1.0675324	1
1	1003	1.06757	0
1	1015	1.0687316	1
1	1016	1.0687692	0
1	1028	1.0699308	1
1	1029	1.0699684	0
1	1041	1.07113	1
1	1042	1.0711676	0
1	1054	1.0723292	1
1	1055	1.0723668	0
1	1067	1.0735284	1
1	1068	1.073566	0
1	1080	1.0747276	1
1	1081	1.0747652	0
1	1093	1.0759268	1
1	1094	1.0759644	0
1	1106	1.077126	1
1	1107	1.0771636	0
1	1119	1.0783252	1
1	1120	1.0783628	0
1	1132	1.0795244	1
1	1133	1.079562	0
1	1145	1.0807236	1
1	1146	1.0807612	0
1	1158	1.0819228	1
1	1159	1.0819604	0
1	1171	1.083122	1
1	1172	1.0831596	0
1	1184	1.0843212	1
1	1185	1.0843588	0
1	1197	1.0855204	1
1	1198	1.085558	0
1	1210	1.0867196	1
1	1211	1.0867572	0
1	1223	1.0879188	1
1	1224	1.0879564	0
1	1237	1.0880404	1
1	1240	1.088078	0
1	1241	1.088078	1
1	1245	1.0882756	0
1	1305	1.0895126	1
1	1306	1.0895502	0
1	1318	1.0907118	1
1	1319	1.0907494	0
1	1331	1.091911	1
1	1332	1.0919486	0
1	1344	1.0931102	1
1	1345	1.0931478	0
1	1357	1.0943094	1
1	1358	1.094347	0
1	1370	1.0955086	1
1	1371	1.0955462	0
1	1383	1.0967078	1
1	1384	1.0967454	0
1	1396	1.097907	1
1	1397	1.0979446	0
1	1409	1.0991062	1
1	1410	1.0991438	0
1	1422	1.1003054	1
1	1423	1.100343	0
1	1435	1.1015046	1
1	1436	1.1015422	0
1	1448	1.1027038	1
1	1449	1.1027414	0
1	1461	1.103903	1
1	1462	1.1039406	0
1	1474	1.1051022	1
1	1475	1.1051398	0
1	1487	1.1063014	1
1	1488	1.106339	0
1	1500	1.1075006	1
1	1501	1.1075382	0
1	1513	1.1086998	1
1	1514	1.1087374	0
1	1526	1.109899	1
1	1527	1.1099366	0
1	1540	1.1100206	1
1	1543	1.1100582	0
1	1544	1.1100582	1
1	1548	1.1102558	0
1	1608	1.1114928	1
1	1609	1.1115304	0
1	1621	1.112692	1
1	1622	1.1127296	0
1	1634	1.1138912	1
1	1635	1.1139288	0
1	1647	1.1150904	1
1	1648	1.115128	0
1	1660	1.1162896	1
1	1661	1.1163272	0
1	1673	1.1174888	1
1	1674	1.1175264	0
1	1686	1.118688	1
1	1687	1.1187256	0
1	1699	1.1198872	1
1	1700	1.1199248	0
1	1712	1.1210864	1
1	1713	1.121124	0
1	1725	1.1222856	1
1	1726	1.1223232	0
1	1738	1.1234848	1
1	1739	1.1235224	0
1	1751	1.124684	1
1	1752	1.1247216	0
1	1764	1.1258832	1
1	1765	1.1259208	0
1	1777	1.1270824	1
1	1778	1.12712	0
1	1790	1.1282816	1
1	1791	1.1283192	0
1	1803	1.1294808	1
1	1804	1.1295184	0
1	1816	1.13068	1
1	1817	1.1307176	0
1	1829	1.1318792	1
1	1830	1.1319168	0
1	1843	1.1320008	1
1	1846	1.1320384	0
1	1847	1.1320384	1
1	1851	1.132236	0
1	1911	1.133473	1
1	1912	1.1335106	0
1	1924	1.1346722	1
1	1925	1.1347098	0
1	1937	1.1358714	1
1	1938	1.135909	0
1	1950	1.1370706	1
1	1951	1.1371082	0
1	1963	1.1382698	1
1	1964	1.1383074	0
1	1976	1.139469	1
1	1977	1.1395066	0
1	1989	1.1406682	1
1	1990	1.1407058	0
1	2002	1.1418674	1
1	2003	1.141905	0
1	2015	1.1430666	1
1	2016	1.1431042	0
1	2028	1.1442658	1
1	2029	1.1443034	0
1	2041	1.145465	1
1	2042	1.1455026	0
1	2054	1.1466642	1
1	2055	1.1467018	0
1	2067	1.1478634	1
1	2068	1.147901	0
1	2080	1.1490626	1
1	2081	1.1491002	0
1	2093	1.1502618	1
1	2094	1.1502994	0
1	2106	1.151461	1
1	2107	1.1514986	0
1	2119	1.1526602	1
1	2120	1.1526978	0
1	2132	1.1538594	1
1	2133	1.153897	0
1	2146	1.153981	1
1	2149	1.1540186	0
1	2150	1.1540186	1
1	2154	1.1542162	0
1	2214	1.1554532	1
1	2215	1.1554908	0
1	2227	1.1566524	1
1	2228	1.15669	0
1	2240	1.1578516	1
1	2241	1.1578892	0
1	2253	1.1590508	1
1	2254	1.1590884	0
1	2266	1.16025	1
1	2267	1.1602876	0
1	2279	1.1614492	1
1	2280	1.1614868	0
1	2292	1.1626484	1
1	2293	1.162686	0
1	2305	1.1638476	1
1	2306	1.1638852	0
1	2318	1.1650468	1
1	2319	1.1650844	0
1	2331	1.166246	1
1	2332	1.1662836	0
1	2344	1.1674452	1
1	2345	1.1674828	0
1	2357	1.1686444	1
1	2358	1.168682	0
1	2370	1.1698436	1
1	2371	1.1698812	0
1	2383	1.1710428	1
1	2384	1.1710804	0
1	2396	1.172242	1
1	2397	1.1722796	0
1	2409	1.1734412	1
1	2410	1.1734788	0
1	2422	1.1746404	1
1	2423	1.174678	0
1	2435	1.1758396	1
1	2436	1.1758772	0
1	2449	1.1759612	1
1	2452	1.1759988	0
1	2453	1.1759988	1
1	2457	1.1761964	0
1	2517	1.1774334	1
1	2518	1.177471	0
1	2530	1.1786326	1
1	2531	1.1786702	0
1	2543	1.1798318	1
1	2544	1.1798694	0
1	2556	1.181031	1
1	2557	1.1810686	0
1	2569	1.1822302	1
1	2570	1.1822678	0
1	2582	1.1834294	1
1	2583	1.183467	0
1	2595	1.1846286	1
1	2596	1.1846662	0
1	2608	1.1858278	1
1	2609	1.1858654	0
1	2621	1.187027	1
1	2622	1.1870646	0
1	2634	1.1882262	1
1	2635	1.1882638	0
1	2647	1.1894254	1
1	2648	1.189463	0
1	2660	1.1906246	1
1	2661	1.1906622	0
1	2673	1.1918238	1
1	2674	1.1918614	0
1	2686	1.193023	1
1	2687	1.1930606	0
1	2699	1.1942222	1
1	2700	1.1942598	0
1	2712	1.1954214	1
1	2713	1.195459	0
1	2725	1.1966206	1
1	2726	1.1966582	0
1	2738	1.1978198	1
1	2739	1.1978574	0
1	2752	1.1979414	1
1	2755	1.197979	0
1	2756	1.197979	1
1	2760	1.1981766	0
1	2820	1.1994136	1
1	2821	1.1994512	0
1	2833	1.2006128	1
1	2834	1.2006504	0
1	2846	1.201812	1
1	2847	1.2018496	0
1	2859	1.2030112	1
1	2860	1.2030488	0
1	2872	1.2042104	1
1	2873	1.204248	0
1	2885	1.2054096	1
1	2886	1.2054472	0
1	2898	1.2066088	1
1	2899	1.2066464	0
1	2911	1.207808	1
1	2912	1.2078456	0
1	2924	1.2090072	1
1	2925	1.2090448	0
1	2937	1.2102064	1
1	2938	1.210244	0
1	2950	1.2114056	1
1	2951	1.2114432	0
1	2963	1.2126048	1
1	2964	1.2126424	0
1	2976	1.213804	1
1	2977	1.2138416	0
1	2989	1.2150032	1
1	2990	1.2150408	0
1	3002	1.2162024	1
1	3003	1.21624	0
1	3015	1.2174016	1
1	3016	1.2174392	0
1	3028	1.2186008	1
1	3029	1.2186384	0
1	3041	1.2198	1
1	3042	1.2198376	0
1	3055	1.2199216	1
1	3058	1.2199592	0
1	3059	1.2199592	1
1	3063	1.2201568	0
1	3123	1.2213938	1
1	3124	1.2214314	0
1	3136	1.222593	1
1	3137	1.2226306	0
1	3149	1.2237922	1
1	3150	1.2238298	0
1	3162	1.2249914	1
1	3163	1.225029	0
1	3175	1.2261906	1
1	3176	1.2262282	0
1	3188	1.2273898	1
1	3189	1.2274274	0
1	3201	1.228589	1
1	3202	1.2286266	0
1	3214	1.2297882	1
1	3215	1.2298258	0
1	3227	1.2309874	1
1	3228	1.231025	0
1	3240	1.2321866	1
1	3241	1.2322242	0
1	3253	1.2333858	1
1	3254	1.2334234	0
1	3266	1.234585	1
1	3267	1.2346226	0
1	3279	1.2357842	1
1	3280	1.2358218	0
1	3292	1.2369834	1
1	3293	1.237021	0
1	3305	1.2381826	1
1	3306	1.2382202	0
1	3318	1.2393818	1
1	3319	1.2394194	0
1	3331	1.240581	1
1	3332	1.2406186	0
1	3344	1.2417802	1
1	3345	1.2418178	0
1	3358	1.2419018	1
1	3361	1.2419394	0
1	3362	1.2419394	1
1	3366	1.242137	0
1	3426	1.243374	1
1	3427	1.2434116	0
1	3439	1.2445732	1
1	3440	1.2446108	0
1	3452	1.2457724	1
1	3453	1.24581	0
1	3465	1.2469716	1
1	3466	1.2470092	0
1	3478	1.2481708	1
1	3479	1.2482084	0
1	3491	1.24937	1
1	3492	1.2494076	0
1	3504	1.2505692	1
1	3505	1.2506068	0
1	3517	1.2517684	1
1	3518	1.251806	0
1	3530	1.2529676	1
1	3531	1.2530052	0
1	3543	1.2541668	1
1	3544	1.2542044	0
1	3556	1.255366	1
1	3557	1.2554036	0
1	3569	1.2565652	1
1	3570	1.2566028	0
1	3582	1.2577644	1
1	3583	1.257802	0
1	3595	1.2589636	1
1	3596	1.2590012	0
1	3608	1.2601628	1
1	3609	1.2602004	0
1	3621	1.261362	1
1	3622	1.2613996	0
1	3634	1.2625612	1
1	3635	1.2625988	0
1	3647	1.2637604	1
1	3648	1.263798	0
1	3661	1.263882	1
1	3664	1.2639196	0
1	3665	1.2639196	1
1	3669	1.2641172	0
1	3729	1.2653542	1
1	3730	1.2653918	0
1	3742	1.2665534	1
1	3743	1.266591	0
1	3755	1.2677526	1
1	3756	1.2677902	0
1	3768	1.2689518	1
1	3769	1.2689894	0
1	3781	1.270151	1
1	3782	1.2701886	0
1	3794	1.2713502	1
1	3795	1.2713878	0
1	3807	1.2725494	1
1	3808	1.272587	0
1	3820	1.2737486	1
1	3821	1.2737862	0
1	3833	1.2749478	1
1	3834	1.2749854	0
1	3846	1.276147	1
1	3847	1.2761846	0
1	3859	1.2773462	1
1	3860	1.2773838	0
1	3872	1.2785454	1
1	3873	1.278583	0
1	3885	1.2797446	1
1	3886	1.2797822	0
1	3898	1.2809438	1
1	3899	1.2809814	0
1	3911	1.282143	1
1	3912	1.2821806	0
1	3924	1.2833422	1
1	3925	1.2833798	0
1	3937	1.2845414	1
1	3938	1.284579	0
1	3950	1.2857406	1
1	3951	1.2857782	0
1	3964	1.2858622	1
1	3967	1.2858998	0
1	3968	1.2858998	1
1	3972	1.2860974	0
1	4032	1.2873344	1
1	4033	1.287372	0
1	4045	1.2885336	1
1	4046	1.2885712	0
1	4058	1.2897328	1
1	4059	1.2897704	0
1	4071	1.290932	1
1	4072	1.2909696	0
1	4084	1.2921312	1
1	4085	1.2921688	0
1	4097	1.2933304	1
1	4098	1.293368	0
1	4110	1.2945296	1
1	4111	1.2945672	0
1	4123	1.2957288	1
1	4124	1.2957664	0
1	4136	1.296928	1
1	4137	1.2969656	0
1	4149	1.2981272	1
1	4150	1.2981648	0
1	4162	1.2993264	1
1	4163	1.299364	0
1	4175	1.3005256	1
1	4176	1.3005632	0
1	4188	1.3017248	1
1	4189	1.3017624	0
1	4201	1.302924	1
1	4202	1.3029616	0
1	4214	1.3041232	1
1	4215	1.3041608	0
1	4227	1.3053224	1
1	4228	1.30536	0
1	4240	1.3065216	1
1	4241	1.3065592	0
1	4253	1.3077208	1
1	4254	1.3077584	0
1	4267	1.3078424	1
1	4270	1.30788	0
1	4271	1.30788	1
1	4275	1.3080776	0
1	4335	1.3093146	1
1	4336	1.3093522	0
1	4348	1.3105138	1
1	4349	1.3105514	0
1	4361	1.311713	1
1	4362	1.3117506	0
1	4374	1.3129122	1
1	4375	1.3129498	0
1	4387	1.3141114	1
1	4388	1.314149	0
1	4400	1.3153106	1
1	4401	1.3153482	0
1	4413	1.3165098	1
1	4414	1.3165474	0
1	4426	1.317709	1
1	4427	1.3177466	0
1	4439	1.3189082	1
1	4440	1.3189458	0
1	4452	1.3201074	1
1	4453	1.320145	0
1	4465	1.3213066	1
1	4466	1.3213442	0
1	4478	1.3225058	1
1	4479	1.3225434	0
1	4491	1.323705	1
1	4492	1.3237426	0
1	4504	1.3249042	1
1	4505	1.3249418	0
1	4517	1.3261034	1
1	4518	1.326141	0
1	4530	1.3273026	1
1	4531	1.3273402	0
1	4543	1.3285018	1
1	4544	1.3285394	0
1	4556	1.329701	1
1	4557	1.3297386	0
1	4570	1.3298226	1
1	4573	1.3298602	0
1	4574	1.3298602	1
1	4578	1.3300578	0
1	4638	1.3312948	1
1	4639	1.3313324	0
1	4651	1.332494	1
1	4652	1.3325316	0
1	4664	1.3336932	1
1	4665	1.3337308	0
1	4677	1.3348924	1
1	4678	1.33493	0
1	4690	1.3360916	1
1	4691	1.3361292	0
1	4703	1.3372908	1
1	4704	1.3373284	0
1	4716	1.33849	1
1	4717	1.3385276	0
1	4729	1.3396892	1
1	4730	1.3397268	0
1	4742	1.3408884	1
1	4743	1.340926	0
1	4755	1.3420876	1
1	4756	1.3421252	0
1	4768	1.3432868	1
1	4769	1.3433244	0
1	4781	1.344486	1
1	4782	1.3445236	0
1	4794	1.3456852	1
1	4795	1.3457228	0
1	4807	1.3468844	1
1	4808	1.346922	0
1	4820	1.3480836	1
1	4821	1.3481212	0
1	4833	1.3492828	1
1	4834	1.3493204	0
1	4846	1.350482	1
1	4847	1.3505196	0
1	4859	1.3516812	1
1	4860	1.3517188	0
1	4873	1.3518028	1
1	4876	1.3518404	0
1	4877	1.3518404	1
1	4881	1.352038	0
1	4941	1.353275	1
1	4942	1.3533126	0
1	4954	1.3544742	1
1	4955	1.3545118	0
1	4967	1.3556734	1
1	4968	1.355711	0
1	4980	1.3568726	1
1	4981	1.3569102	0
1	4993	1.3580718	1
1	4994	1.3581094	0
1	5006	1.359271	1
1	5007	1.3593086	0
1	5019	1.3604702	1
1	5020	1.3605078	0
1	5032	1.3616694	1
1	5033	1.361707	0
1	5045	1.3628686	1
1	5046	1.3629062	0
1	5058	1.3640678	1
1	5059	1.3641054	0
1	5071	1.365267	1
1	5072	1.3653046	0
1	5084	1.3664662	1
1	5085	1.3665038	0
1	5097	1.3676654	1
1	5098	1.367703	0
1	5110	1.3688646	1
1	5111	1.3689022	0
1	5123	1.3700638	1
1	5124	1.3701014	0
1	5136	1.371263	1
1	5137	1.3713006	0
1	5149	1.3724622	1
1	5150	1.3724998	0
1	5162	1.3736614	1
1	5163	1.373699	0
1	5176	1.373783	1
1	5179	1.3738206	0
1	5180	1.3738206	1
1	5184	1.3740182	0
1	5244	1.3752552	1
1	5245	1.3752928	0
1	5257	1.3764544	1
1	5258	1.376492	0
1	5270	1.3776536	1
1	5271	1.3776912	0
1	5283	1.3788528	1
1	5284	1.3788904	0
1	5296	1.380052	1
1	5297	1.3800896	0
1	5309	1.3812512	1
1	5310	1.3812888	0
1	5322	1.3824504	1
1	5323	1.382488	0
1	5335	1.3836496	1
1	5336	1.3836872	0
1	5348	1.3848488	1
1	5349	1.3848864	0
1	5361	1.386048	1
1	5362	1.3860856	0
1	5374	1.3872472	1
1	5375	1.3872848	0
1	5387	1.3884464	1
1	5388	1.388484	0
1	5400	1.3896456	1
1	5401	1.3896832	0
1	5413	1.3908448	1
1	5414	1.3908824	0
1	5426	1.392044	1
1	5427	1.3920816	0
1	5439	1.3932432	1
1	5440	1.3932808	0
1	5452	1.3944424	1
1	5453	1.39448	0
1	5465	1.3956416	1
1	5466	1.3956792	0
1	5479	1.3957632	1
1	5482	1.3958008	0
1	5483	1.3958008	1
1	5487	1.3959984	0
1	5547	1.3972354	1
1	5548	1.397273	0
1	5560	1.3984346	1
1	5561	1.3984722	0
1	5573	1.3996338	1
1	5574	1.3996714	0
1	5586	1.400833	1
1	5587	1.4008706	0
1	5599	1.4020322	1
1	5600	1.4020698	0
1	5612	1.4032314	1
1	5613	1.403269	0
1	5625	1.4044306	1
1	5626	1.4044682	0
1	5638	1.4056298	1
1	5639	1.4056674	0
1	5651	1.406829	1
1	5652	1.4068666	0
1	5664	1.4080282	1
1	5665	1.4080658	0
1	5677	1.4092274	1
1	5678	1.409265	0
1	5690	1.4104266	1
1	5691	1.4104642	0
1	5703	1.4116258	1
1	5704	1.4116634	0
1	5716	1.412825	1
1	5717	1.4128626	0
1	5729	1.4140242	1
1	5730	1.4140618	0
1	5742	1.4152234	1
1	5743	1.415261	0
1	5755	1.4164226	1
1	5756	1.4164602	0
1	5768	1.4176218	1
1	5769	1.4176594	0
1	5782	1.4177434	1
1	5785	1.417781	0
1	5786	1.417781	1
1	5790	1.4179786	0
1	5850	1.4192156	1
1	5851	1.4192532	0
1	5863	1.4204148	1
1	5864	1.4204524	0
1	5876	1.421614	1
1	5877	1.4216516	0
1	5889	1.4228132	1
1	5890	1.4228508	0
1	5902	1.4240124	1
1	5903	1.42405	0
1	5915	1.4252116	1
1	5916	1.4252492	0
1	5928	1.4264108	1
1	5929	1.4264484	0
1	5941	1.42761	1
1	5942	1.4276476	0
1	5954	1.4288092	1
1	5955	1.4288468	0
1	5967	1.4300084	1
1	5968	1.430046	0
1	5980	1.4312076	1
1	5981	1.4312452	0
1	5993	1.4324068	1
1	5994	1.4324444	0
1	6006	1.433606	1
1	6007	1.4336436	0
1	6019	1.4348052	1
1	6020	1.4348428	0
1	6032	1.4360044	1
1	6033	1.436042	0
1	6045	1.4372036	1
1	6046	1.4372412	0
1	6058	1.4384028	1
1	6059	1.4384404	0
1	6071	1.439602	1
1	6072	1.4396396	0
1	6085	1.4397236	1
1	6088	1.4397612	0
1	6089	1.4397612	1
1	6093	1.4399588	0
1	6153	1.4411958	1
1	6154	1.4412334	0
1	6166	1.442395	1
1	6167	1.4424326	0
1	6179	1.4435942	1
1	6180	1.4436318	0
1	6192	1.4447934	1
1	6193	1.444831	0
1	6205	1.4459926	1
1	6206	1.4460302	0
1	6218	1.4471918	1
1	6219	1.4472294	0
1	6231	1.448391	1
1	6232	1.4484286	0
1	6244	1.4495902	1
1	6245	1.4496278	0
1	6257	1.4507894	1
1	6258	1.450827	0
1	6270	1.4519886	1
1	6271	1.4520262	0
1	6283	1.4531878	1
1	6284	1.4532254	0
1	6296	1.454387	1
1	6297	1.4544246	0
1	6309	1.4555862	1
1	6310	1.4556238	0
1	6322	1.4567854	1
1	6323	1.456823	0
1	6335	1.4579846	1
1	6336	1.4580222	0
1	6348	1.4591838	1
1	6349	1.4592214	0
1	6361	1.460383	1
1	6362	1.4604206	0
1	6374	1.4615822	1
1	6375	1.4616198	0
1	6388	1.4617038	1
1	6391	1.4617414	0
1	6392	1.4617414	1
1	6396	1.461939	0
1	6456	1.463176	1
1	6457	1.4632136	0
1	6469	1.4643752	1
1	6470	1.4644128	0
1	6482	1.4655744	1
1	6483	1.465612	0
1	6495	1.4667736	1
1	6496	1.4668112	0
1	6508	1.4679728	1
1	6509	1.4680104	0
1	6521	1.469172	1
1	6522	1.4692096	0
1	6534	1.4703712	1
1	6535	1.4704088	0
1	6547	1.4715704	1
1	6548	1.471608	0
1	6560	1.4727696	1
1	6561	1.4728072	0
1	6573	1.4739688	1
1	6574	1.4740064	0
1	6586	1.475168	1
1	6587	1.4752056	0
1	6599	1.4763672	1
1	6600	1.4764048	0
1	6612	1.4775664	1
1	6613	1.477604	0
1	6625	1.4787656	1
1	6626	1.4788032	0
1	6638	1.4799648	1
1	6639	1.4800024	0
1	6651	1.481164	1
1	6652	1.4812016	0
1	6664	1.4823632	1
1	6665	1.4824008	0
1	6677	1.4835624	1
1	6678	1.4836	0
1	6691	1.483684	1
1	6694	1.4837216	0
1	6695	1.4837216	1
1	6699	1.4839192	0
1	6759	1.4851562	1
1	6760	1.4851938	0
1	6772	1.4863554	1
1	6773	1.486393	0
1	6785	1.4875546	1
1	6786	1.4875922	0
1	6798	1.4887538	1
1	6799	1.4887914	0
1	6811	1.489953	1
1	6812	1.4899906	0
1	6824	1.4911522	1
1	6825	1.4911898	0
1	6837	1.4923514	1
1	6838	1.492389	0
1	6850	1.4935506	1
1	6851	1.4935882	0
1	6863	1.4947498	1
1	6864	1.4947874	0
1	6876	1.495949	1
1	6877	1.4959866	0
1	6889	1.4971482	1
1	6890	1.4971858	0
1	6902	1.4983474	1
1	6903	1.498385	0
1	6915	1.4995466	1
1	6916	1.4995842	0
1	6928	1.5007458	1
1	6929	1.5007834	0
1	6941	1.501945	1
1	6942	1.5019826	0
1	6954	1.5031442	1
1	6955	1.5031818	0
1	6967	1.5043434	1
1	6968	1.504381	0
1	6980	1.5055426	1
1	6981	1.5055802	0
1	6994	1.5056642	1
1	6997	1.5057018	0
1	6998	1.5057018	1
1	7002	1.5058994	0
1	7062	1.5071364	1
1	7063	1.507174	0
1	7075	1.5083356	1
1	7076	1.5083732	0
1	7088	1.5095348	1
1	7089	1.5095724	0
1	7101	1.510734	1
1	7102	1.5107716	0
1	7114	1.5119332	1
1	7115	1.5119708	0
1	7127	1.5131324	1
1	7128	1.51317	0
1	7140	1.5143316	1
1	7141	1.5143692	0
1	7153	1.5155308	1
1	7154	1.5155684	0
1	7166	1.51673	1
1	7167	1.5167676	0
1	7179	1.5179292	1
1	7180	1.5179668	0
1	7192	1.5191284	1
1	7193	1.519166	0
1	7205	1.5203276	1
1	7206	1.5203652	0
1	7218	1.5215268	1
1	7219	1.5215644	0
1	7231	1.522726	1
1	7232	1.5227636	0
1	7244	1.5239252	1
1	7245	1.5239628	0
1	7257	1.5251244	1
1	7258	1.525162	0
1	7270	1.5263236	1
1	7271	1.5263612	0
1	7283	1.5275228	1
1	7284	1.5275604	0
1	7297	1.5276444	1
1	7300	1.527682	0
1	7301	1.527682	1
1	7305	1.5278796	0
1	7365	1.5291166	1
1	7366	1.5291542	0
1	7378	1.5303158	1
1	7379	1.5303534	0
1	7391	1.531515	1
1	7392	1.5315526	0
1	7404	1.5327142	1
1	7405	1.5327518	0
1	7417	1.5339134	1
1	7418	1.533951	0
1	7430	1.5351126	1
1	7431	1.5351502	0
1	7443	1.5363118	1
1	7444	1.5363494	0
1	7456	1.537511	1
1	7457	1.5375486	0
1	7469	1.5387102	1
1	7470	1.5387478	0
1	7482	1.5399094	1
1	7483	1.539947	0
1	7495	1.5411086	1
1	7496	1.5411462	0
1	7508	1.5423078	1
1	7509	1.5423454	0
1	7521	1.543507	1
1	7522	1.5435446	0
1	7534	1.5447062	1
1	7535	1.5447438	0
1	7547	1.5459054	1
1	7548	1.545943	0
1	7560	1.5471046	1
1	7561	1.5471422	0
1	7573	1.5483038	1
1	7574	1.5483414	0
1	7586	1.549503	1
1	7587	1.5495406	0
1	7600	1.5496246	1
1	7603	1.5496622	0
1	7604	1.5496622	1
1	7608	1.5498598	0
1	7668	1.5510968	1
1	7669	1.5511344	0
1	7681	1.552296	1
1	7682	1.5523336	0
1	7694	1.5534952	1
1	7695	1.5535328	0
1	7707	1.5546944	1
1	7708	1.554732	0
1	7720	1.5558936	1
1	7721	1.5559312	0
1	7733	1.5570928	1
1	7734	1.5571304	0
1	7746	1.558292	1
1	7747	1.5583296	0
1	7759	1.5594912	1
1	7760	1.5595288	0
1	7772	1.5606904	1
1	7773	1.560728	0
1	7785	1.5618896	1
1	7786	1.5619272	0
1	7798	1.5630888	1
1	7799	1.5631264	0
1	7811	1.564288	1
1	7812	1.5643256	0
1	7824	1.5654872	1
1	7825	1.5655248	0
1	7837	1.5666864	1
1	7838	1.566724	0
1	7850	1.5678856	1
1	7851	1.5679232	0
1	7863	1.5690848	1
1	7864	1.5691224	0
1	7876	1.570284	1
1	7877	1.5703216	0
1	7889	1.5714832	1
1	7890	1.5715208	0
1	7903	1.5716048	1
1	7906	1.5716424	0
1	7907	1.5716424	1
1	7911	1.57184	0
1	7971	1.573077	1
1	7972	1.5731146	0
1	7984	1.5742762	1
1	7985	1.5743138	0
1	7997	1.5754754	1
1	7998	1.575513	0
1	8010	1.5766746	1
1	8011	1.5767122	0
1	8023	1.5778738	1
1	8024	1.5779114	0
1	8036	1.579073	1
1	8037	1.5791106	0
1	8049	1.5802722	1
1	8050	1.5803098	0
1	8062	1.5814714	1
1	8063	1.581509	0
1	8075	1.5826706	1
1	8076	1.5827082	0
1	8088	1.5838698	1
1	8089	1.5839074	0
1	8101	1.585069	1
1	8102	1.5851066	0
1	8114	1.5862682	1
1	8115	1.5863058	0
1	8127	1.5874674	1
1	8128	1.587505	0
1	8140	1.5886666	1
1	8141	1.5887042	0
1	8153	1.5898658	1
1	8154	1.5899034	0
1	8166	1.591065	1
1	8167	1.5911026	0
1	8179	1.5922642	1
1	8180	1.5923018	0
1	8192	1.5934634	1
1	8193	1.593501	0
1	8206	1.593585	1
1	8209	1.5936226	0
1	8210	1.5936226	1
1	8214	1.5938202	0
1	8274	1.5950572	1
1	8275	1.5950948	0
1	8287	1.5962564	1
1	8288	1.596294	0
1	8300	1.5974556	1
1	8301	1.5974932	0
1	8313	1.5986548	1
1	8314	1.5986924	0
1	8326	1.599854	1
1	8327	1.5998916	0
1	8339	1.6010532	1
1	8340	1.6010908	0
1	8352	1.6022524	1
1	8353	1.60229	0
1	8365	1.6034516	1
1	8366	1.6034892	0
1	8378	1.6046508	1
1	8379	1.6046884	0
1	8391	1.60585	1
1	8392	1.6058876	0
1	8404	1.6070492	1
1	8405	1.6070868	0
1	8417	1.6082484	1
1	8418	1.608286	0
1	8430	1.6094476	1
1	8431	1.6094852	0
1	8443	1.6106468	1
1	8444	1.6106844	0
1	8456	1.611846	1
1	8457	1.6118836	0
1	8469	1.6130452	1
1	8470	1.6130828	0
1	8482	1.6142444	1
1	8483	1.614282	0
1	8495	1.6154436	1
1	8496	1.6154812	0
1	8509	1.6155652	1
1	8512	1.6156028	0
1	8513	1.6156028	1
1	8517	1.6158004	0
1	8577	1.6170374	1
1	8578	1.617075	0
1	8590	1.6182366	1
1	8591	1.6182742	0
1	8603	1.6194358	1
1	8604	1.6194734	0
1	8616	1.620635	1
1	8617	1.6206726	0
1	8629	1.6218342	1
1	8630	1.6218718	0
1	8642	1.6230334	1
1	8643	1.623071	0
1	8655	1.6242326	1
1	8656	1.6242702	0
1	8668	1.6254318	1
1	8669	1.6254694	0
1	8681	1.626631	1
1	8682	1.6266686	0
1	8694	1.6278302	1
1	8695	1.6278678	0
1	8707	1.6290294	1
1	8708	1.629067	0
1	8720	1.6302286	1
1	8721	1.6302662	0
1	8733	1.6314278	1
1	8734	1.6314654	0
1	8746	1.632627	1
1	8747	1.6326646	0
1	8759	1.6338262	1
1	8760	1.6338638	0
1	8772	1.6350254	1
1	8773	1.635063	0
1	8785	1.6362246	1
1	8786	1.6362622	0
1	8798	1.6374238	1
1	8799	1.6374614	0
1	8812	1.6375454	1
1	8815	1.637583	0
1	8816	1.637583	1
1	8820	1.6377806	0
1	8880	1.6390176	1
1	8881	1.6390552	0
1	8893	1.6402168	1
1	8894	1.6402544	0
1	8906	1.641416	1
1	8907	1.6414536	0
1	8919	1.6426152	1
1	8920	1.6426528	0
1	8932	1.6438144	1
1	8933	1.643852	0
1	8945	1.6450136	1
1	8946	1.6450512	0
1	8958	1.6462128	1
1	8959	1.6462504	0
1	8971	1.647412	1
1	8972	1.6474496	0
1	8984	1.6486112	1
1	8985	1.6486488	0
1	8997	1.6498104	1
1	8998	1.649848	0
1	9010	1.6510096	1
1	9011	1.6510472	0
1	9023	1.6522088	1
1	9024	1.6522464	0
1	9036	1.653408	1
1	9037	1.6534456	0
1	9049	1.6546072	1
1	9050	1.6546448	0
1	9062	1.6558064	1
1	9063	1.655844	0
1	9075	1.6570056	1
1	9076	1.6570432	0
1	9088	1.6582048	1
1	9089	1.6582424	0
1	9101	1.659404	1
1	9102	1.6594416	0
1	9115	1.6595256	1
1	9118	1.6595632	0
1	9119	1.6595632	1
1	9123	1.6597608	0
1	9183	1.6609978	1
1	9184	1.6610354	0
1	9196	1.662197	1
1	9197	1.6622346	0
1	9209	1.6633962	1
1	9210	1.6634338	0
1	9222	1.6645954	1
1	9223	1.664633	0
1	9235	1.6657946	1
1	9236	1.6658322	0
1	9248	1.6669938	1
1	9249	1.6670314	0
1	9261	1.668193	1
1	9262	1.6682306	0
1	9274	1.6693922	1
1	9275	1.6694298	0
1	9287	1.6705914	1
1	9288	1.670629	0
1	9300	1.6717906	1
1	9301	1.6718282	0
1	9313	1.6729898	1
1	9314	1.6730274	0
1	9326	1.674189	1
1	9327	1.6742266	0
1	9339	1.6753882	1
1	9340	1.6754258	0
1	9352	1.6765874	1
1	9353	1.676625	0
1	9365	1.6777866	1
1	9366	1.6778242	0
1	9378	1.6789858	1
1	9379	1.6790234	0
1	9391	1.680185	1
1	9392	1.6802226	0
1	9404	1.6813842	1
1	9405	1.6814218	0
1	9418	1.6815058	1
1	9421	1.6815434	0
1	9422	1.6815434	1
1	9426	1.681741	0
1	9486	1.682978	1
1	9487	1.6830156	0
1	9499	1.6841772	1
1	9500	1.6842148	0
1	9512	1.6853764	1
1	9513	1.685414	0
1	9525	1.6865756	1
1	9526	1.6866132	0
1	9538	1.6877748	1
1	9539	1.6878124	0
1	9551	1.688974	1
1	9552	1.6890116	0
1	9564	1.6901732	1
1	9565	1.6902108	0
1	9577	1.6913724	1
1	9578	1.69141	0
1	9590	1.6925716	1
1	9591	1.6926092	0
1	9603	1.6937708	1
1	9604	1.6938084	0
1	9616	1.69497	1
1	9617	1.6950076	0
1	9629	1.6961692	1
1	9630	1.6962068	0
1	9642	1.6973684	1
1	9643	1.697406	0
1	9655	1.6985676	1
1	9656	1.6986052	0
1	9668	1.6997668	1
1	9669	1.6998044	0
1	9681	1.700966	1
1	9682	1.7010036	0
1	9694	1.7021652	1
1	9695	1.7022028	0
1	9707	1.7033644	1
1	9708	1.703402	0
1	9721	1.703486	1
1	9724	1.7035236	0
1	9725	1.7035236	1
1	9729	1.7037212	0
1	9789	1.7049582	1
1	9790	1.7049958	0
1	9802	1.7061574	1
1	9803	1.706195	0
1	9815	1.7073566	1
1	9816	1.7073942	0
1	9828	1.7085558	1
1	9829	1.7085934	0
1	9841	1.709755	1
1	9842	1.7097926	0
1	9854	1.7109542	1
1	9855	1.7109918	0
1	9867	1.7121534	1
1	9868	1.712191	0
1	9880	1.7133526	1
1	9881	1.7133902	0
1	9893	1.7145518	1
1	9894	1.7145894	0
1	9906	1.715751	1
1	9907	1.7157886	0
1	9919	1.7169502	1
1	9920	1.7169878	0
1	9932	1.7181494	1
1	9933	1.718187	0
1	9945	1.7193486	1
1	9946	1.7193862	0
1	9958	1.7205478	1
1	9959	1.7205854	0
1	9971	1.721747	1
1	9972	1.7217846	0
1	9984	1.7229462	1
1	9985	1.7229838	0
1	9997	1.7241454	1
1	9998	1.724183	0
1	10010	1.7253446	1
1	10011	1.7253822	0
1	10024	1.7254662	1
1	10027	1.7255038	0
1	10028	1.7255038	1
1	10032	1.7257014	0
1	10092	1.7269384	1
1	10093	1.726976	0
1	10105	1.7281376	1
1	10106	1.7281752	0
1	10118	1.7293368	1
1	10119	1.7293744	0
1	10131	1.730536	1
1	10132	1.7305736	0
1	10144	1.7317352	1
1	10145	1.7317728	0
1	10157	1.7329344	1
1	10158	1.732972	0
1	10170	1.7341336	1
1	10171	1.7341712	0
1	10183	1.7353328	1
1	10184	1.7353704	0
1	10196	1.736532	1
1	10197	1.7365696	0
1	10209	1.7377312	1
1	10210	1.7377688	0
1	10222	1.7389304	1
1	10223	1.738968	0
1	10235	1.7401296	1
1	10236	1.7401672	0
1	10248	1.7413288	1
1	10249	1.7413664	0
1	10261	1.742528	1
1	10262	1.7425656	0
1	10274	1.7437272	1
1	10275	1.7437648	0
1	10287	1.7449264	1
1	10288	1.744964	0
1	10300	1.7461256	1
1	10301	1.7461632	0
1	10313	1.7473248	1
1	10314	1.7473624	0
1	10327	1.7474464	1
1	10330	1.747484	0
1	10331	1.747484	1
1	10335	1.7476816	0
1	10395	1.7489186	1
1	10396	1.7489562	0
1	10408	1.7501178	1
1	10409	1.7501554	0
1	10421	1.751317	1
1	10422	1.7513546	0
1	10434	1.7525162	1
1	10435	1.7525538	0
1	10447	1.7537154	1
1	10448	1.753753	0
1	10460	1.7549146	1
1	10461	1.7549522	0
1	10473	1.7561138	1
1	10474	1.7561514	0
1	10486	1.757313	1
1	10487	1.7573506	0
1	10499	1.7585122	1
1	10500	1.7585498	0
1	10512	1.7597114	1
1	10513	1.759749	0
1	10525	1.7609106	1
1	10526	1.7609482	0
1	10538	1.7621098	1
1	10539	1.7621474	0
1	10551	1.763309	1
1	10552	1.7633466	0
1	10564	1.7645082	1
1	10565	1.7645458	0
1	10577	1.7657074	1
1	10578	1.765745	0
1	10590	1.7669066	1
1	10591	1.7669442	0
1	10603	1.7681058	1
1	10604	1.7681434	0
1	10616	1.769305	1
1	10617	1.7693426	0
1	10630	1.7694266	1
1	10633	1.7694642	0
1	10634	1.7694642	1
1	10638	1.7696618	0
1	10698	1.7708988	1
1	10699	1.7709364	0
1	10711	1.772098	1
1	10712	1.7721356	0
1	10724	1.7732972	1
1	10725	1.7733348	0
1	10737	1.7744964	1
1	10738	1.774534	0
1	10750	1.7756956	1
1	10751	1.7757332	0
1	10763	1.7768948	1
1	10764	1.7769324	0
1	10776	1.778094	1
1	10777	1.7781316	0
1	10789	1.7792932	1
1	10790	1.7793308	0
1	10802	1.7804924	1
1	10803	1.78053	0
1	10815	1.7816916	1
1	10816	1.7817292	0
1	10828	1.7828908	1
1	10829	1.7829284	0
1	10841	1.78409	1
1	10842	1.7841276	0
1	10854	1.7852892	1
1	10855	1.7853268	0
1	10867	1.7864884	1
1	10868	1.786526	0
1	10880	1.7876876	1
1	10881	1.7877252	0
1	10893	1.7888868	1
1	10894	1.7889244	0
1	10906	1.790086	1
1	10907	1.7901236	0
1	10919	1.7912852	1
1	10920	1.7913228	0
1	10933	1.7914068	1
1	10936	1.7914444	0
1	10937	1.7914444	1
1	10941	1.791642	0
1	11001	1.792879	1
1	11002	1.7929166	0
1	11014	1.7940782	1
1	11015	1.7941158	0
1	11027	1.7952774	1
1	11028	1.795315	0
1	11040	1.7964766	1
1	11041	1.7965142	0
1	11053	1.7976758	1
1	11054	1.7977134	0
1	11066	1.798875	1
1	11067	1.7989126	0
1	11079	1.8000742	1
1	11080	1.8001118	0
1	11092	1.8012734	1
1	11093	1.801311	0
1	11105	1.8024726	1
1	11106	1.8025102	0
1	11118	1.8036718	1
1	11119	1.8037094	0
1	11131	1.804871	1
1	11132	1.8049086	0
1	11144	1.8060702	1
1	11145	1.8061078	0
1	11157	1.8072694	1
1	11158	1.807307	0
1	11170	1.8084686	1
1	11171	1.8085062	0
1	11183	1.8096678	1
1	11184	1.8097054	0
1	11196	1.810867	1
1	11197	1.8109046	0
1	11209	1.8120662	1
1	11210	1.8121038	0
1	11222	1.8132654	1
1	11223	1.813303	0
1	11236	1.813387	1
1	11239	1.8134246	0
1	11240	1.8134246	1
1	11244	1.8136222	0
1	11304	1.8148592	1
1	11305	1.8148968	0
1	11317	1.8160584	1
1	11318	1.816096	0
1	11330	1.8172576	1
1	11331	1.8172952	0
1	11343	1.8184568	1
1	11344	1.8184944	0
1	11356	1.819656	1
1	11357	1.8196936	0
1	11369	1.8208552	1
1	11370	1.8208928	0
1	11382	1.8220544	1
1	11383	1.822092	0
1	11395	1.8232536	1
1	11396	1.8232912	0
1	11408	1.8244528	1
1	11409	1.8244904	0
1	11421	1.825652	1
1	11422	1.8256896	0
1	11434	1.8268512	1
1	11435	1.8268888	0
1	11447	1.8280504	1
1	11448	1.828088	0
1	11460	1.8292496	1
1	11461	1.8292872	0
1	11473	1.8304488	1
1	11474	1.8304864	0
1	11486	1.831648	1
1	11487	1.8316856	0
1	11499	1.8328472	1
1	11500	1.8328848	0
1	11512	1.8340464	1
1	11513	1.834084	0
1	11525	1.8352456	1
1	11526	1.8352832	0
1	11539	1.8353672	1
1	11542	1.8354048	0
1	11543	1.8354048	1
1	11547	1.8356024	0
1	11607	1.8368394	1
1	11608	1.836877	0
1	11620	1.8380386	1
1	11621	1.8380762	0
1	11633	1.8392378	1
1	11634	1.8392754	0
1	11646	1.840437	1
1	11647	1.8404746	0
1	11659	1.8416362	1
1	11660	1.8416738	0
1	11672	1.8428354	1
1	11673	1.842873	0
1	11685	1.8440346	1
1	11686	1.8440722	0
1	11698	1.8452338	1
1	11699	1.8452714	0
1	11711	1.846433	1
1	11712	1.8464706	0
1	11724	1.8476322	1
1	11725	1.8476698	0
1	11737	1.8488314	1
1	11738	1.848869	0
1	11750	1.8500306	1
1	11751	1.8500682	0
1	11763	1.8512298	1
1	11764	1.8512674	0
1	11776	1.852429	1
1	11777	1.8524666	0
1	11789	1.8536282	1
1	11790	1.8536658	0
1	11802	1.8548274	1
1	11803	1.854865	0
1	11815	1.8560266	1
1	11816	1.8560642	0
1	11828	1.8572258	1
1	11829	1.8572634	0
1	11842	1.8573474	1
1	11845	1.857385	0
1	11846	1.857385	1
1	11850	1.8575826	0
1	11910	1.8588196	1
1	11911	1.8588572	0
1	11923	1.8600188	1
1	11924	1.8600564	0
1	11936	1.861218	1
1	11937	1.8612556	0
1	11949	1.8624172	1
1	11950	1.8624548	0
1	11962	1.8636164	1
1	11963	1.863654	0
1	11975	1.8648156	1
1	11976	1.8648532	0
1	11988	1.8660148	1
1	11989	1.8660524	0
1	12001	1.867214	1
1	12002	1.8672516	0
1	12014	1.8684132	1
1	12015	1.8684508	0
1	12027	1.8696124	1
1	12028	1.86965	0
1	12040	1.8708116	1
1	12041	1.8708492	0
1	12053	1.8720108	1
1	12054	1.8720484	0
1	12066	1.87321	1
1	12067	1.8732476	0
1	12079	1.8744092	1
1	12080	1.8744468	0
1	12092	1.8756084	1
1	12093	1.875646	0
1	12105	1.8768076	1
1	12106	1.8768452	0
1	12118	1.8780068	1
1	12119	1.8780444	0
1	12131	1.879206	1
1	12132	1.8792436	0
1	12145	1.8793276	1
1	12148	1.8793652	0
1	12149	1.8793652	1
1	12153	1.8795628	0
1	12213	1.8807998	1
1	12214	1.8808374	0
1	12226	1.881999	1
1	12227	1.8820366	0
1	12239	1.8831982	1
1	12240	1.8832358	0
1	12252	1.8843974	1
1	12253	1.884435	0
1	12265	1.8855966	1
1	12266	1.8856342	0
1	12278	1.8867958	1
1	12279	1.8868334	0
1	12291	1.887995	1
1	12292	1.8880326	0
1	12304	1.8891942	1
1	12305	1.8892318	0
1	12317	1.8903934	1
1	12318	1.890431	0
1	12330	1.8915926	1
1	12331	1.8916302	0
1	12343	1.8927918	1
1	12344	1.8928294	0
1	12356	1.893991	1
1	12357	1.8940286	0
1	12369	1.8951902	1
1	12370	1.8952278	0
1	12382	1.8963894	1
1	12383	1.896427	0
1	12395	1.8975886	1
1	12396	1.8976262	0
1	12408	1.8987878	1
1	12409	1.8988254	0
1	12421	1.899987	1
1	12422	1.9000246	0
1	12434	1.9011862	1
1	12435	1.9012238	0
1	12448	1.9013078	1
1	12451	1.9013454	0
1	12452	1.9013454	1
1	12456	1.901543	0
1	12516	1.90278	1
1	12517	1.9028176	0
1	12529	1.9039792	1
1	12530	1.9040168	0
1	12542	1.9051784	1
1	12543	1.905216	0
1	12555	1.9063776	1
1	12556	1.9064152	0
1	12568	1.9075768	1
1	12569	1.9076144	0
1	12581	1.908776	1
1	12582	1.9088136	0
1	12594	1.9099752	1
1	12595	1.9100128	0
1	12607	1.9111744	1
1	12608	1.911212	0
1	12620	1.9123736	1
1	12621	1.9124112	0
1	12633	1.9135728	1
1	12634	1.9136104	0
1	12646	1.914772	1
1	12647	1.9148096	0
1	12659	1.9159712	1
1	12660	1.9160088	0
1	12672	1.9171704	1
1	12673	1.917208	0
1	12685	1.9183696	1
1	12686	1.9184072	0
1	12698	1.9195688	1
1	12699	1.9196064	0
1	12711	1.920768	1
1	12712	1.9208056	0
1	12724	1.9219672	1
1	12725	1.9220048	0
1	12737	1.9231664	1
1	12738	1.923204	0
1	12751	1.923288	1
1	12754	1.9233256	0
1	12755	1.9233256	1
1	12759	1.9235232	0
1	12819	1.9247602	1
1	12820	1.9247978	0
1	12832	1.9259594	1
1	12833	1.925997	0
1	12845	1.9271586	1
1	12846	1.9271962	0
1	12858	1.9283578	1
1	12859	1.9283954	0
1	12871	1.929557	1
1	12872	1.9295946	0
1	12884	1.9307562	1
1	12885	1.9307938	0
1	12897	1.9319554	1
1	12898	1.931993	0
1	12910	1.9331546	1
1	12911	1.9331922	0
1	12923	1.9343538	1
1	12924	1.9343914	0
1	12936	1.935553	1
1	12937	1.9355906	0
1	12949	1.9367522	1
1	12950	1.9367898	0
1	12962	1.9379514	1
1	12963	1.937989	0
1	12975	1.9391506	1
1	12976	1.9391882	0
1	12988	1.9403498	1
1	12989	1.9403874	0
1	13001	1.941549	1
1	13002	1.9415866	0
1	13014	1.9427482	1
1	13015	1.9427858	0
1	13027	1.9439474	1
1	13028	1.943985	0
1	13040	1.9451466	1
1	13041	1.9451842	0
1	13054	1.9452682	1
1	13057	1.9453058	0
1	13058	1.9453058	1
1	13062	1.9455034	0
1	13122	1.9467404	1
1	13123	1.946778	0
1	13135	1.9479396	1
1	13136	1.9479772	0
1	13148	1.9491388	1
1	13149	1.9491764	0
1	13161	1.950338	1
1	13162	1.9503756	0
1	13174	1.9515372	1
1	13175	1.9515748	0
1	13187	1.9527364	1
1	13188	1.952774	0
1	13200	1.9539356	1
1	13201	1.9539732	0
1	13213	1.9551348	1
1	13214	1.9551724	0
1	13226	1.956334	1
1	13227	1.9563716	0
1	13239	1.9575332	1
1	13240	1.9575708	0
1	13252	1.9587324	1
1	13253	1.95877	0
1	13265	1.9599316	1
1	13266	1.9599692	0
1	13278	1.9611308	1
1	13279	1.9611684	0
1	13291	1.96233	1
1	13292	1.9623676	0
1	13304	1.9635292	1
1	13305	1.9635668	0
1	13317	1.9647284	1
1	13318	1.964766	0
1	13330	1.9659276	1
1	13331	1.9659652	0
1	13343	1.9671268	1
1	13344	1.9671644	0
1	13357	1.9672484	1
1	13360	1.967286	0
1	13361	1.967286	1
1	13365	1.9674836	0
1	13425	1.9687206	1
1	13426	1.9687582	0
1	13438	1.9699198	1
1	13439	1.9699574	0
1	13451	1.971119	1
1	13452	1.9711566	0
1	13464	1.9723182	1
1	13465	1.9723558	0
1	13477	1.9735174	1
1	13478	1.973555	0
1	13490	1.9747166	1
1	13491	1.9747542	0
1	13503	1.9759158	1
1	13504	1.9759534	0
1	13516	1.977115	1
1	13517	1.9771526	0
1	13529	1.9783142	1
1	13530	1.9783518	0
1	13542	1.9795134	1
1	13543	1.979551	0
1	13555	1.9807126	1
1	13556	1.9807502	0
1	13568	1.9819118	1
1	13569	1.9819494	0
1	13581	1.983111	1
1	13582	1.9831486	0
1	13594	1.9843102	1
1	13595	1.9843478	0
1	13607	1.9855094	1
1	13608	1.985547	0
1	13620	1.9867086	1
1	13621	1.9867462	0
1	13633	1.9879078	1
1	13634	1.9879454	0
1	13646	1.989107	1
1	13647	1.9891446	0
1	13660	1.9892286	1
1	13663	1.9892662	0
1	13664	1.9892662	1
1	13668	1.9894638	0
1	13728	1.9907008	1
1	13729	1.9907384	0
1	13741	1.9919	1
1	13742	1.9919376	0
1	13754	1.9930992	1
1	13755	1.9931368	0
1	13767	1.9942984	1
1	13768	1.994336	0
1	13780	1.9954976	1
1	13781	1.9955352	0
1	13793	1.9966968	1
1	13794	1.9967344	0
1	13806	1.997896	1
1	13807	1.9979336	0
1	13819	1.9990952	1
1	13820	1.9991328	0
1	13832	2.0002944	1
1	13833	2.000332	0
1	13845	2.0014936	1
1	13846	2.0015312	0
1	13858	2.0026928	1
1	13859	2.0027304	0
1	13871	2.003892	1
1	13872	2.0039296	0
1	13884	2.0050912	1
1	13885	2.0051288	0
1	13897	2.0062904	1
1	13898	2.006328	0
1	13910	2.0074896	1
1	13911	2.0075272	0
1	13923	2.0086888	1
1	13924	2.0087264	0
1	13936	2.009888	1
1	13937	2.0099256	0
1	13949	2.0110872	1
1	13950	2.0111248	0
1	13963	2.0112088	1
1	13966	2.0112464	0
1	13967	2.0112464	1
1	13971	2.011444	0
1	14031	2.012681	1
1	14032	2.0127186	0
1	14044	2.0138802	1
1	14045	2.0139178	0
1	14057	2.0150794	1
1	14058	2.015117	0
1	14070	2.0162786	1
1	14071	2.0163162	0
1	14083	2.0174778	1
1	14084	2.0175154	0
1	14096	2.018677	1
1	14097	2.0187146	0
1	14109	2.0198762	1
1	14110	2.0199138	0
1	14122	2.0210754	1
1	14123	2.021113	0
1	14135	2.0222746	1
1	14136	2.0223122	0
1	14148	2.0234738	1
1	14149	2.0235114	0
1	14161	2.024673	1
1	14162	2.0247106	0
1	14174	2.0258722	1
1	14175	2.0259098	0
1	14187	2.0270714	1
1	14188	2.027109	0
1	14200	2.0282706	1
1	14201	2.0283082	0
1	14213	2.0294698	1
1	14214	2.0295074	0
1	14226	2.030669	1
1	14227	2.0307066	0
1	14239	2.0318682	1
1	14240	2.0319058	0
1	14252	2.0330674	1
1	14253	2.033105	0
1	14266	2.033189	1
1	14269	2.0332266	0
1	14270	2.0332266	1
1	14274	2.0334242	0
1	14334	2.0346612	1
1	14335	2.0346988	0
1	14347	2.0358604	1
1	14348	2.035898	0
1	14360	2.0370596	1
1	14361	2.0370972	0
1	14373	2.0382588	1
1	14374	2.0382964	0
1	14386	2.039458	1
1	14387	2.0394956	0
1	14399	2.0406572	1
1	14400	2.0406948	0
1	14412	2.0418564	1
1	14413	2.041894	0
1	14425	2.0430556	1
1	14426	2.0430932	0
1	14438	2.0442548	1
1	14439	2.0442924	0
1	14451	2.045454	1
1	14452	2.0454916	0
1	14464	2.0466532	1
1	14465	2.0466908	0
1	14477	2.0478524	1
1	14478	2.04789	0
1	14490	2.0490516	1
1	14491	2.0490892	0
1	14503	2.0502508	1
1	14504	2.0502884	0
1	14516	2.05145	1
1	14517	2.0514876	0
1	14529	2.0526492	1
1	14530	2.0526868	0
1	14542	2.0538484	1
1	14543	2.053886	0
1	14555	2.0550476	1
1	14556	2.0550852	0
1	14569	2.0551692	1
1	14572	2.0552068	0
1	14573	2.0552068	1
1	14577	2.0554044	0
1	14637	2.0566414	1
1	14638	2.056679	0
1	14650	2.0578406	1
1	14651	2.0578782	0
1	14663	2.0590398	1
1	14664	2.0590774	0
1	14676	2.060239	1
1	14677	2.0602766	0
1	14689	2.0614382	1
1	14690	2.0614758	0
1	14702	2.0626374	1
1	14703	2.062675	0
1	14715	2.0638366	1
1	14716	2.0638742	0
1	14728	2.0650358	1
1	14729	2.0650734	0
1	14741	2.066235	1
1	14742	2.0662726	0
1	14754	2.0674342	1
1	14755	2.0674718	0
1	14767	2.0686334	1
1	14768	2.068671	0
1	14780	2.0698326	1
1	14781	2.0698702	0
1	14793	2.0710318	1
1	14794	2.0710694	0
1	14806	2.072231	1
1	14807	2.0722686	0
1	14819	2.0734302	1
1	14820	2.0734678	0
1	14832	2.0746294	1
1	14833	2.074667	0
1	14845	2.0758286	1
1	14846	2.0758662	0
1	14858	2.0770278	1
1	14859	2.0770654	0
1	14872	2.0771494	1
1	14875	2.077187	0
1	14876	2.077187	1
1	14880	2.0773846	0
1	14940	2.0786216	1
1	14941	2.0786592	0
1	14953	2.0798208	1
1	14954	2.0798584	0
1	14966	2.08102	1
1	14967	2.0810576	0
1	14979	2.0822192	1
1	14980	2.0822568	0
1	14992	2.0834184	1
1	14993	2.083456	0
1	15005	2.0846176	1
1	15006	2.0846552	0
1	15018	2.0858168	1
1	15019	2.0858544	0
1	15031	2.087016	1
1	15032	2.0870536	0
1	15044	2.0882152	1
1	15045	2.0882528	0
1	15057	2.0894144	1
1	15058	2.089452	0
1	15070	2.0906136	1
1	15071	2.0906512	0
1	15083	2.0918128	1
1	15084	2.0918504	0
1	15096	2.093012	1
1	15097	2.0930496	0
1	15109	2.0942112	1
1	15110	2.0942488	0
1	15122	2.0954104	1
1	15123	2.095448	0
1	15135	2.0966096	1
1	15136	2.0966472	0
1	15148	2.0978088	1
1	15149	2.0978464	0
1	15161	2.099008	1
1	15162	2.0990456	0
1	15175	2.0991296	1
1	15178	2.0991672	0
1	15179	2.0991672	1
1	15183	2.0993648	0
1	15243	2.1006018	1
1	15244	2.1006394	0
1	15256	2.101801	1
1	15257	2.1018386	0
1	15269	2.1030002	1
1	15270	2.1030378	0
1	15282	2.1041994	1
1	15283	2.104237	0
1	15295	2.1053986	1
1	15296	2.1054362	0
1	15308	2.1065978	1
1	15309	2.1066354	0
1	15321	2.107797	1
1	15322	2.1078346	0
1	15334	2.1089962	1
1	15335	2.1090338	0
1	15347	2.1101954	1
1	15348	2.110233	0
1	15360	2.1113946	1
1	15361	2.1114322	0
1	15373	2.1125938	1
1	15374	2.1126314	0
1	15386	2.113793	1
1	15387	2.1138306	0
1	15399	2.1149922	1
1	15400	2.1150298	0
1	15412	2.1161914	1
1	15413	2.116229	0
1	15425	2.1173906	1
1	15426	2.1174282	0
1	15438	2.1185898	1
1	15439	2.1186274	0
1	15451	2.119789	1
1	15452	2.1198266	0
1	15464	2.1209882	1
1	15465	2.1210258	0
1	15478	2.1211098	1
1	15481	2.1211474	0
1	15482	2.1211474	1
1	15486	2.121345	0
1	15546	2.122582	1
1	15547	2.1226196	0
1	15559	2.1237812	1
1	15560	2.1238188	0
1	15572	2.1249804	1
1	15573	2.125018	0
1	15585	2.1261796	1
1	15586	2.1262172	0
1	15598	2.1273788	1
1	15599	2.1274164	0
1	15611	2.128578	1
1	15612	2.1286156	0
1	15624	2.1297772	1
1	15625	2.1298148	0
1	15637	2.1309764	1
1	15638	2.131014	0
1	15650	2.1321756	1
1	15651	2.1322132	0
1	15663	2.1333748	1
1	15664	2.1334124	0
1	15676	2.134574	1
1	15677	2.1346116	0
1	15689	2.1357732	1
1	15690	2.1358108	0
1	15702	2.1369724	1
1	15703	2.13701	0
1	15715	2.1381716	1
1	15716	2.1382092	0
1	15728	2.1393708	1
1	15729	2.1394084	0
1	15741	2.14057	1
1	15742	2.1406076	0
1	15754	2.1417692	1
1	15755	2.1418068	0
1	15767	2.1429684	1
1	15768	2.143006	0
1	15781	2.14309	1
1	15784	2.1431276	0
1	15785	2.1431276	1
1	15789	2.1433252	0
1	15849	2.1445622	1
1	15850	2.1445998	0
1	15862	2.1457614	1
1	15863	2.145799	0
1	15875	2.1469606	1
1	15876	2.1469982	0
1	15888	2.1481598	1
1	15889	2.1481974	0
1	15901	2.149359	1
1	15902	2.1493966	0
1	15914	2.1505582	1
1	15915	2.1505958	0
1	15927	2.1517574	1
1	15928	2.151795	0
1	15940	2.1529566	1
1	15941	2.1529942	0
1	15953	2.1541558	1
1	15954	2.1541934	0
1	15966	2.155355	1
1	15967	2.1553926	0
1	15979	2.1565542	1
1	15980	2.1565918	0
1	15992	2.1577534	1
1	15993	2.157791	0
1	16005	2.1589526	1
1	16006	2.1589902	0
1	16018	2.1601518	1
1	16019	2.1601894	0
1	16031	2.161351	1
1	16032	2.1613886	0
1	16044	2.1625502	1
1	16045	2.1625878	0
1	16057	2.1637494	1
1	16058	2.163787	0
1	16070	2.1649486	1
1	16071	2.1649862	0
1	16084	2.1650702	1
1	16087	2.1651078	0
1	16088	2.1651078	1
1	16092	2.1653054	0
1	16152	2.1665424	1
1	16153	2.16658	0
1	16165	2.1677416	1
1	16166	2.1677792	0
1	16178	2.1689408	1
1	16179	2.1689784	0
1	16191	2.17014	1
1	16192	2.1701776	0
1	16204	2.1713392	1
1	16205	2.1713768	0
1	16217	2.1725384	1
1	16218	2.172576	0
1	16230	2.1737376	1
1	16231	2.1737752	0
1	16243	2.1749368	1
1	16244	2.1749744	0
1	16256	2.176136	1
1	16257	2.1761736	0
1	16269	2.1773352	1
1	16270	2.1773728	0
1	16282	2.1785344	1
1	16283	2.178572	0
1	16295	2.1797336	1
1	16296	2.1797712	0
1	16308	2.1809328	1
1	16309	2.1809704	0
1	16321	2.182132	1
1	16322	2.1821696	0
1	16334	2.1833312	1
1	16335	2.1833688	0
1	16347	2.1845304	1
1	16348	2.184568	0
1	16360	2.1857296	1
1	16361	2.1857672	0
1	16373	2.1869288	1
1	16374	2.1869664	0
1	16387	2.1870504	1
1	16390	2.187088	0
1	16391	2.187088	1
1	16395	2.1872856	0
1	16455	2.1885226	1
1	16456	2.1885602	0
1	16468	2.1897218	1
1	16469	2.1897594	0
1	16481	2.190921	1
1	16482	2.1909586	0
1	16494	2.1921202	1
1	16495	2.1921578	0
1	16507	2.1933194	1
1	16508	2.193357	0
1	16520	2.1945186	1
1	16521	2.1945562	0
1	16533	2.1957178	1
1	16534	2.1957554	0
1	16546	2.196917	1
1	16547	2.1969546	0
1	16559	2.1981162	1
1	16560	2.1981538	0
1	16572	2.1993154	1
1	16573	2.199353	0
1	16585	2.2005146	1
1	16586	2.2005522	0
1	16598	2.2017138	1
1	16599	2.2017514	0
1	16611	2.202913	1
1	16612	2.2029506	0
1	16624	2.2041122	1
1	16625	2.2041498	0
1	16637	2.2053114	1
1	16638	2.205349	0
1	16650	2.2065106	1
1	16651	2.2065482	0
1	16663	2.2077098	1
1	16664	2.2077474	0
1	16676	2.208909	1
1	16677	2.2089466	0
1	16690	2.2090306	1
1	16693	2.2090682	0
1	16694	2.2090682	1
1	16698	2.2092658	0
1	16758	2.2105028	1
1	16759	2.2105404	0
1	16771	2.211702	1
1	16772	2.2117396	0
1	16784	2.2129012	1
1	16785	2.2129388	0
1	16797	2.2141004	1
1	16798	2.214138	0
1	16810	2.2152996	1
1	16811	2.2153372	0
1	16823	2.2164988	1
1	16824	2.2165364	0
1	16836	2.217698	1
1	16837	2.2177356	0
1	16849	2.2188972	1
1	16850	2.2189348	0
1	16862	2.2200964	1
1	16863	2.220134	0
1	16875	2.2212956	1
1	16876	2.2213332	0
1	16888	2.2224948	1
1	16889	2.2225324	0
1	16901	2.223694	1
1	16902	2.2237316	0
1	16914	2.2248932	1
1	16915	2.2249308	0
1	16927	2.2260924	1
1	16928	2.22613	0
1	16940	2.2272916	1
1	16941	2.2273292	0
1	16953	2.2284908	1
1	16954	2.2285284	0
1	16966	2.22969	1
1	16967	2.2297276	0
1	16979	2.2308892	1
1	16980	2.2309268	0
1	16993	2.2310108	1
1	16996	2.2310484	0
1	16997	2.2310484	1
1	17001	2.231246	0
1	17061	2.232483	1
1	17062	2.2325206	0
1	17074	2.2336822	1
1	17075	2.2337198	0
1	17087	2.2348814	1
1	17088	2.234919	0
1	17100	2.2360806	1
1	17101	2.2361182	0
1	17113	2.2372798	1
1	17114	2.2373174	0
1	17126	2.238479	1
1	17127	2.2385166	0
1	17139	2.2396782	1
1	17140	2.2397158	0
1	17152	2.2408774	1
1	17153	2.240915	0
1	17165	2.2420766	1
1	17166	2.2421142	0
1	17178	2.2432758	1
1	17179	2.2433134	0
1	17191	2.244475	1
1	17192	2.2445126	0
1	17204	2.2456742	1
1	17205	2.2457118	0
1	17217	2.2468734	1
1	17218	2.246911	0
1	17230	2.2480726	1
1	17231	2.2481102	0
1	17243	2.2492718	1
1	17244	2.2493094	0
1	17256	2.250471	1
1	17257	2.2505086	0
1	17269	2.2516702	1
1	17270	2.2517078	0
1	17282	2.2528694	1
1	17283	2.252907	0
1	17296	2.252991	1
1	17299	2.2530286	0
1	17300	2.2530286	1
1	17304	2.2532262	0
1	17364	2.2544632	1
1	17365	2.2545008	0
1	17377	2.2556624	1
1	17378	2.2557	0
1	17390	2.2568616	1
1	17391	2.2568992	0
1	17403	2.2580608	1
1	17404	2.2580984	0
1	17416	2.25926	1
1	17417	2.2592976	0
1	17429	2.2604592	1
1	17430	2.2604968	0
1	17442	2.2616584	1
1	17443	2.261696	0
1	17455	2.2628576	1
1	17456	2.2628952	0
1	17468	2.2640568	1
1	17469	2.2640944	0
1	17481	2.265256	1
1	17482	2.2652936	0
1	17494	2.2664552	1
1	17495	2.2664928	0
1	17507	2.2676544	1
1	17508	2.267692	0
1	17520	2.2688536	1
1	17521	2.2688912	0
1	17533	2.2700528	1
1	17534	2.2700904	0
1	17546	2.271252	1
1	17547	2.2712896	0
1	17559	2.2724512	1
1	17560	2.2724888	0
1	17572	2.2736504	1
1	17573	2.273688	0
1	17585	2.2748496	1
1	17586	2.2748872	0
1	17599	2.2749712	1
1	17602	2.2750088	0
1	17603	2.2750088	1
1	17607	2.2752064	0
1	17667	2.2764434	1
1	17668	2.276481	0
1	17680	2.2776426	1
1	17681	2.2776802	0
1	17693	2.2788418	1
1	17694	2.2788794	0
1	17706	2.280041	1
1	17707	2.2800786	0
1	17719	2.2812402	1
1	17720	2.2812778	0
1	17732	2.2824394	1
1	17733	2.282477	0
1	17745	2.2836386	1
1	17746	2.2836762	0
1	17758	2.2848378	1
1	17759	2.2848754	0
1	17771	2.286037	1
1	17772	2.2860746	0
1	17784	2.2872362	1
1	17785	2.2872738	0
1	17797	2.2884354	1
1	17798	2.288473	0
1	17810	2.2896346	1
1	17811	2.2896722	0
1	17823	2.2908338	1
1	17824	2.2908714	0
1	17836	2.292033	1
1	17837	2.2920706	0
1	17849	2.2932322	1
1	17850	2.2932698	0
1	17862	2.2944314	1
1	17863	2.294469	0
1	17875	2.2956306	1
1	17876	2.2956682	0
1	17888	2.2968298	1
1	17889	2.2968674	0
1	17902	2.2969514	1
1	17905	2.296989	0
1	17906	2.296989	1
1	17910	2.2971866	0
1	17970	2.2984236	1
1	17971	2.2984612	0
1	17983	2.2996228	1
1	17984	2.2996604	0
1	17996	2.300822	1
1	17997	2.3008596	0
1	18009	2.3020212	1
1	18010	2.3020588	0
1	18022	2.3032204	1
1	18023	2.303258	0
1	18035	2.3044196	1
1	18036	2.3044572	0
1	18048	2.3056188	1
1	18049	2.3056564	0
1	18061	2.306818	1
1	18062	2.3068556	0
1	18074	2.3080172	1
1	18075	2.3080548	0
1	18087	2.3092164	1
1	18088	2.309254	0
1	18100	2.3104156	1
1	18101	2.3104532	0
1	18113	2.3116148	1
1	18114	2.3116524	0
1	18126	2.312814	1
1	18127	2.3128516	0
1	18139	2.3140132	1
1	18140	2.3140508	0
1	18152	2.3152124	1
1	18153	2.31525	0
1	18165	2.3164116	1
1	18166	2.3164492	0
1	18178	2.3176108	1
1	18179	2.3176484	0
1	18191	2.31881	1
1	18192	2.3188476	0
1	18205	2.3189316	1
1	18208	2.3189692	0
1	18209	2.3189692	1
1	18213	2.3191668	0
1	18273	2.3204038	1
1	18274	2.3204414	0
1	18286	2.321603	1
1	18287	2.3216406	0
1	18299	2.3228022	1
1	18300	2.3228398	0
1	18312	2.3240014	1
1	18313	2.324039	0
1	18325	2.3252006	1
1	18326	2.3252382	0
1	18338	2.3263998	1
1	18339	2.3264374	0
1	18351	2.327599	1
1	18352	2.3276366	0
1	18364	2.3287982	1
1	18365	2.3288358	0
1	18377	2.3299974	1
1	18378	2.330035	0
1	18390	2.3311966	1
1	18391	2.3312342	0
1	18403	2.3323958	1
1	18404	2.3324334	0
1	18416	2.333595	1
1	18417	2.3336326	0
1	18429	2.3347942	1
1	18430	2.3348318	0
1	18442	2.3359934	1
1	18443	2.336031	0
1	18455	2.3371926	1
1	18456	2.3372302	0
1	18468	2.3383918	1
1	18469	2.3384294	0
1	18481	2.339591	1
1	18482	2.3396286	0
1	18494	2.3407902	1
1	18495	2.3408278	0
1	18508	2.3409118	1
1	18511	2.3409494	0
1	18512	2.3409494	1
1	18516	2.341147	0
1	18576	2.342384	1
1	18577	2.3424216	0
1	18589	2.3435832	1
1	18590	2.3436208	0
1	18602	2.3447824	1
1	18603	2.34482	0
1	18615	2.3459816	1
1	18616	2.3460192	0
1	18628	2.3471808	1
1	18629	2.3472184	0
1	18641	2.34838	1
1	18642	2.3484176	0
1	18654	2.3495792	1
1	18655	2.3496168	0
1	18667	2.3507784	1
1	18668	2.350816	0
1	18680	2.3519776	1
1	18681	2.3520152	0
1	18693	2.3531768	1
1	18694	2.3532144	0
1	18706	2.354376	1
1	18707	2.3544136	0
1	18719	2.3555752	1
1	18720	2.3556128	0
1	18732	2.3567744	1
1	18733	2.356812	0
1	18745	2.3579736	1
1	18746	2.3580112	0
1	18758	2.3591728	1
1	18759	2.3592104	0
1	18771	2.360372	1
1	18772	2.3604096	0
1	18784	2.3615712	1
1	18785	2.3616088	0
1	18797	2.3627704	1
1	18798	2.362808	0
1	18811	2.362892	1
1	18814	2.3629296	0
1	18815	2.3629296	1
1	18819	2.3631272	0
1	18879	2.3643642	1
1	18880	2.3644018	0
1	18892	2.3655634	1
1	18893	2.365601	0
1	18905	2.3667626	1
1	18906	2.3668002	0
1	18918	2.3679618	1
1	18919	2.3679994	0
1	18931	2.369161	1
1	18932	2.3691986	0
1	18944	2.3703602	1
1	18945	2.3703978	0
1	18957	2.3715594	1
1	18958	2.371597	0
1	18970	2.3727586	1
1	18971	2.3727962	0
1	18983	2.3739578	1
1	18984	2.3739954	0
1	18996	2.375157	1
1	18997	2.3751946	0
1	19009	2.3763562	1
1	19010	2.3763938	0
1	19022	2.3775554	1
1	19023	2.377593	0
1	19035	2.3787546	1
1	19036	2.3787922	0
1	19048	2.3799538	1
1	19049	2.3799914	0
1	19061	2.381153	1
1	19062	2.3811906	0
1	19074	2.3823522	1
1	19075	2.3823898	0
1	19087	2.3835514	1
1	19088	2.383589	0
1	19100	2.3847506	1
1	19101	2.3847882	0
1	19114	2.3848722	1
1	19117	2.3849098	0
1	19118	2.3849098	1
1	19122	2.3851074	0
1	19182	2.3863444	1
1	19183	2.386382	0
1	19195	2.3875436	1
1	19196	2.3875812	0
1	19208	2.3887428	1
1	19209	2.3887804	0
1	19221	2.389942	1
1	19222	2.3899796	0
1	19234	2.3911412	1
1	19235	2.3911788	0
1	19247	2.3923404	1
1	19248	2.392378	0
1	19260	2.3935396	1
1	19261	2.3935772	0
1	19273	2.3947388	1
1	19274	2.3947764	0
1	19286	2.395938	1
1	19287	2.3959756	0
1	19299	2.3971372	1
1	19300	2.3971748	0
1	19312	2.3983364	1
1	19313	2.398374	0
1	19325	2.3995356	1
1	19326	2.3995732	0
1	19338	2.4007348	1
1	19339	2.4007724	0
1	19351	2.401934	1
1	19352	2.4019716	0
1	19364	2.4031332	1
1	19365	2.4031708	0
1	19377	2.4043324	1
1	19378	2.40437	0
1	19390	2.4055316	1
1	19391	2.4055692	0
1	19403	2.4067308	1
1	19404	2.4067684	0
1	19417	2.4068524	1
1	19420	2.40689	0
1	19421	2.40689	1
1	19425	2.4070876	0
1	19485	2.4083246	1
1	19486	2.4083622	0
1	19498	2.4095238	1
1	19499	2.4095614	0
1	19511	2.410723	1
1	19512	2.4107606	0
1	19524	2.4119222	1
1	19525	2.4119598	0
1	19537	2.4131214	1
1	19538	2.413159	0
1	19550	2.4143206	1
1	19551	2.4143582	0
1	19563	2.4155198	1
1	19564	2.4155574	0
1	19576	2.416719	1
1	19577	2.4167566	0
1	19589	2.4179182	1
1	19590	2.4179558	0
1	19602	2.4191174	1
1	19603	2.419155	0
1	19615	2.4203166	1
1	19616	2.4203542	0
1	19628	2.4215158	1
1	19629	2.4215534	0
1	19641	2.422715	1
1	19642	2.4227526	0
1	19654	2.4239142	1
1	19655	2.4239518	0
1	19667	2.4251134	1
1	19668	2.425151	0
1	19680	2.4263126	1
1	19681	2.4263502	0
1	19693	2.4275118	1
1	19694	2.4275494	0
1	19706	2.428711	1
1	19707	2.4287486	0
1	19720	2.4288326	1
1	19723	2.4288702	0
1	19724	2.4288702	1
1	19728	2.4290678	0
1	19788	2.4303048	1
1	19789	2.4303424	0
1	19801	2.431504	1
1	19802	2.4315416	0
1	19814	2.4327032	1
1	19815	2.4327408	0
1	19827	2.4339024	1
1	19828	2.43394	0
1	19840	2.4351016	1
1	19841	2.4351392	0
1	19853	2.4363008	1
1	19854	2.4363384	0
1	19866	2.4375	1
1	19867	2.4375376	0
1	19879	2.4386992	1
1	19880	2.4387368	0
1	19892	2.4398984	1
1	19893	2.439936	0
1	19905	2.4410976	1
1	19906	2.4411352	0
1	19918	2.4422968	1
1	19919	2.4423344	0
1	19931	2.443496	1
1	19932	2.4435336	0
1	19944	2.4446952	1
1	19945	2.4447328	0
1	19957	2.4458944	1
1	19958	2.445932	0
1	19970	2.4470936	1
1	19971	2.4471312	0
1	19983	2.4482928	1
1	19984	2.4483304	0
1	19996	2.449492	1
1	19997	2.4495296	0
1	20009	2.4506912	1
1	20010	2.4507288	0
1	20023	2.4508128	1
1	20026	2.4508504	0
1	20027	2.4508504	1
1	20031	2.451048	0
1	20091	2.452285	1
1	20092	2.4523226	0
1	20104	2.4534842	1
1	20105	2.4535218	0
1	20117	2.4546834	1
1	20118	2.454721	0
1	20130	2.4558826	1
1	20131	2.4559202	0
1	20143	2.4570818	1
1	20144	2.4571194	0
1	20156	2.458281	1
1	20157	2.4583186	0
1	20169	2.4594802	1
1	20170	2.4595178	0
1	20182	2.4606794	1
1	20183	2.460717	0
1	20195	2.4618786	1
1	20196	2.4619162	0
1	20208	2.4630778	1
1	20209	2.4631154	0
1	20221	2.464277	1
1	20222	2.4643146	0
1	20234	2.4654762	1
1	20235	2.4655138	0
1	20247	2.4666754	1
1	20248	2.466713	0
1	20260	2.4678746	1
1	20261	2.4679122	0
1	20273	2.4690738	1
1	20274	2.4691114	0
1	20286	2.470273	1
1	20287	2.4703106	0
1	20299	2.4714722	1
1	20300	2.4715098	0
1	20312	2.4726714	1
1	20313	2.472709	0
1	20326	2.472793	1
1	20329	2.4728306	0
1	20330	2.4728306	1
1	20334	2.4730282	0
1	20394	2.4742652	1
1	20395	2.4743028	0
1	20407	2.4754644	1
1	20408	2.475502	0
1	20420	2.4766636	1
1	20421	2.4767012	0
1	20433	2.4778628	1
1	20434	2.4779004	0
1	20446	2.479062	1
1	20447	2.4790996	0
1	20459	2.4802612	1
1	20460	2.4802988	0
1	20472	2.4814604	1
1	20473	2.481498	0
1	20485	2.4826596	1
1	20486	2.4826972	0
1	20498	2.4838588	1
1	20499	2.4838964	0
1	20511	2.485058	1
1	20512	2.4850956	0
1	20524	2.4862572	1
1	20525	2.4862948	0
1	20537	2.4874564	1
1	20538	2.487494	0
1	20550	2.4886556	1
1	20551	2.4886932	0
1	20563	2.4898548	1
1	20564	2.4898924	0
1	20576	2.491054	1
1	20577	2.4910916	0
1	20589	2.4922532	1
1	20590	2.4922908	0
1	20602	2.4934524	1
1	20603	2.49349	0
1	20615	2.4946516	1
1	20616	2.4946892	0
1	20629	2.4947732	1
1	20632	2.4948108	0
1	20633	2.4948108	1
1	20637	2.4950084	0
1	20697	2.4962454	1
1	20698	2.496283	0
1	20710	2.4974446	1
1	20711	2.4974822	0
1	20723	2.4986438	1
1	20724	2.4986814	0
1	20736	2.499843	1
1	20737	2.4998806	0
1	20749	2.5010422	1
1	20750	2.5010798	0
1	20762	2.5022414	1
1	20763	2.502279	0
1	20775	2.5034406	1
1	20776	2.5034782	0
1	20788	2.5046398	1
1	20789	2.5046774	0
1	20801	2.505839	1
1	20802	2.5058766	0
1	20814	2.5070382	1
1	20815	2.5070758	0
1	20827	2.5082374	1
1	20828	2.508275	0
1	20840	2.5094366	1
1	20841	2.5094742	0
1	20853	2.5106358	1
1	20854	2.5106734	0
1	20866	2.511835	1
1	20867	2.5118726	0
1	20879	2.5130342	1
1	20880	2.5130718	0
1	20892	2.5142334	1
1	20893	2.514271	0
1	20905	2.5154326	1
1	20906	2.5154702	0
1	20918	2.5166318	1
1	20919	2.5166694	0
1	20932	2.5167534	1
1	20935	2.516791	0
1	20936	2.516791	1
1	20940	2.5169886	0
1	21000	2.5182256	1
1	21001	2.5182632	0
1	21013	2.5194248	1
1	21014	2.5194624	0
1	21026	2.520624	1
1	21027	2.5206616	0
1	21039	2.5218232	1
1	21040	2.5218608	0
1	21052	2.5230224	1
1	21053	2.52306	0
1	21065	2.5242216	1
1	21066	2.5242592	0
1	21078	2.5254208	1
1	21079	2.5254584	0
1	21091	2.52662	1
1	21092	2.5266576	0
1	21104	2.5278192	1
1	21105	2.5278568	0
1	21117	2.5290184	1
1	21118	2.529056	0
1	21130	2.5302176	1
1	21131	2.5302552	0
1	21143	2.5314168	1
1	21144	2.5314544	0
1	21156	2.532616	1
1	21157	2.5326536	0
1	21169	2.5338152	1
1	21170	2.5338528	0
1	21182	2.5350144	1
1	21183	2.535052	0
1	21195	2.5362136	1
1	21196	2.5362512	0
1	21208	2.5374128	1
1	21209	2.5374504	0
1	21221	2.538612	1
1	21222	2.5386496	0
1	21235	2.5387336	1
1	21238	2.5387712	0
1	21239	2.5387712	1
1	21243	2.5389688	0
1	21303	2.5402058	1
1	21304	2.5402434	0
1	21316	2.541405	1
1	21317	2.5414426	0
1	21329	2.5426042	1
1	21330	2.5426418	0
1	21342	2.5438034	1
1	21343	2.543841	0
1	21355	2.5450026	1
1	21356	2.5450402	0
1	21368	2.5462018	1
1	21369	2.5462394	0
1	21381	2.547401	1
1	21382	2.5474386	0
1	21394	2.5486002	1
1	21395	2.5486378	0
1	21407	2.5497994	1
1	21408	2.549837	0
1	21420	2.5509986	1
1	21421	2.5510362	0
1	21433	2.5521978	1
1	21434	2.5522354	0
1	21446	2.553397	1
1	21447	2.5534346	0
1	21459	2.5545962	1
1	21460	2.5546338	0
1	21472	2.5557954	1
1	21473	2.555833	0
1	21485	2.5569946	1
1	21486	2.5570322	0
1	21498	2.5581938	1
1	21499	2.5582314	0
1	21511	2.559393	1
1	21512	2.5594306	0
1	21524	2.5605922	1
1	21525	2.5606298	0
1	21538	2.5607138	1
1	21541	2.5607514	0
1	21542	2.5607514	1
1	21546	2.560949	0
1	21606	2.562186	1
1	21607	2.5622236	0
1	21619	2.5633852	1
1	21620	2.5634228	0
1	21632	2.5645844	1
1	21633	2.564622	0
1	21645	2.5657836	1
1	21646	2.5658212	0
1	21658	2.5669828	1
1	21659	2.5670204	0
1	21671	2.568182	1
1	21672	2.5682196	0
1	21684	2.5693812	1
1	21685	2.5694188	0
1	21697	2.5705804	1
1	21698	2.570618	0
1	21710	2.5717796	1
1	21711	2.5718172	0
1	21723	2.5729788	1
1	21724	2.5730164	0
1	21736	2.574178	1
1	21737	2.5742156	0
1	21749	2.5753772	1
1	21750	2.5754148	0
1	21762	2.5765764	1
1	21763	2.576614	0
1	21775	2.5777756	1
1	21776	2.5778132	0
1	21788	2.5789748	1
1	21789	2.5790124	0
1	21801	2.580174	1
1	21802	2.5802116	0
1	21814	2.5813732	1
1	21815	2.5814108	0
1	21827	2.5825724	1
1	21828	2.58261	0
1	21841	2.582694	1
1	21844	2.5827316	0
1	21845	2.5827316	1
1	21849	2.5829292	0
1	21909	2.5841662	1
1	21910	2.5842038	0
1	21922	2.5853654	1
1	21923	2.585403	0
1	21935	2.5865646	1
1	21936	2.5866022	0
1	21948	2.5877638	1
1	21949	2.5878014	0
1	21961	2.588963	1
1	21962	2.5890006	0
1	21974	2.5901622	1
1	21975	2.5901998	0
1	21987	2.5913614	1
1	21988	2.591399	0
1	22000	2.5925606	1
1	22001	2.5925982	0
1	22013	2.5937598	1
1	22014	2.5937974	0
1	22026	2.594959	1
1	22027	2.5949966	0
1	22039	2.5961582	1
1	22040	2.5961958	0
1	22052	2.5973574	1
1	22053	2.597395	0
1	22065	2.5985566	1
1	22066	2.5985942	0
1	22078	2.5997558	1
1	22079	2.5997934	0
1	22091	2.600955	1
1	22092	2.6009926	0
1	22104	2.6021542	1
1	22105	2.6021918	0
1	22117	2.6033534	1
1	22118	2.603391	0
1	22130	2.6045526	1
1	22131	2.6045902	0
1	22144	2.6046742	1
1	22147	2.6047118	0
1	22148	2.6047118	1
1	22152	2.6049094	0
1	22212	2.6061464	1
1	22213	2.606184	0
1	22225	2.6073456	1
1	22226	2.6073832	0
1	22238	2.6085448	1
1	22239	2.6085824	0
1	22251	2.609744	1
1	22252	2.6097816	0
1	22264	2.6109432	1
1	22265	2.6109808	0
1	22277	2.6121424	1
1	22278	2.61218	0
1	22290	2.6133416	1
1	22291	2.6133792	0
1	22303	2.6145408	1
1	22304	2.6145784	0
1	22316	2.61574	1
1	22317	2.6157776	0
1	22329	2.6169392	1
1	22330	2.6169768	0
1	22342	2.6181384	1
1	22343	2.618176	0
1	22355	2.6193376	1
1	22356	2.6193752	0
1	22368	2.6205368	1
1	22369	2.6205744	0
1	22381	2.621736	1
1	22382	2.6217736	0
1	22394	2.6229352	1
1	22395	2.6229728	0
1	22407	2.6241344	1
1	22408	2.624172	0
1	22420	2.6253336	1
1	22421	2.6253712	0
1	22433	2.6265328	1
1	22434	2.6265704	0
1	22447	2.6266544	1
1	22450	2.626692	0
1	22451	2.626692	1
1	22455	2.6268896	0
1	22515	2.6281266	1
1	22516	2.6281642	0
1	22528	2.6293258	1
1	22529	2.6293634	0
1	22541	2.630525	1
1	22542	2.6305626	0
1	22554	2.6317242	1
1	22555	2.6317618	0
1	22567	2.6329234	1
1	22568	2.632961	0
1	22580	2.6341226	1
1	22581	2.6341602	0
1	22593	2.6353218	1
1	22594	2.6353594	0
1	22606	2.636521	1
1	22607	2.6365586	0
1	22619	2.6377202	1
1	22620	2.6377578	0
1	22632	2.6389194	1
1	22633	2.638957	0
1	22645	2.6401186	1
1	22646	2.6401562	0
1	22658	2.6413178	1
1	22659	2.6413554	0
1	22671	2.642517	1
1	22672	2.6425546	0
1	22684	2.6437162	1
1	22685	2.6437538	0
1	22697	2.6449154	1
1	22698	2.644953	0
1	22710	2.6461146	1
1	22711	2.6461522	0
1	22723	2.6473138	1
1	22724	2.6473514	0
1	22736	2.648513	1
1	22737	2.6485506	0
1	22750	2.6486346	1
1	22753	2.6486722	0
1	22754	2.6486722	1
1	22758	2.6488698	0
1	22818	2.6501068	1
1	22819	2.6501444	0
1	22831	2.651306	1
1	22832	2.6513436	0
1	22844	2.6525052	1
1	22845	2.6525428	0
1	22857	2.6537044	1
1	22858	2.653742	0
1	22870	2.6549036	1
1	22871	2.6549412	0
1	22883	2.6561028	1
1	22884	2.6561404	0
1	22896	2.657302	1
1	22897	2.6573396	0
1	22909	2.6585012	1
1	22910	2.6585388	0
1	22922	2.6597004	1
1	22923	2.659738	0
1	22935	2.6608996	1
1	22936	2.6609372	0
1	22948	2.6620988	1
1	22949	2.6621364	0
1	22961	2.663298	1
1	22962	2.6633356	0
1	22974	2.6644972	1
1	22975	2.6645348	0
1	22987	2.6656964	1
1	22988	2.665734	0
1	23000	2.6668956	1
1	23001	2.6669332	0
1	23013	2.6680948	1
1	23014	2.6681324	0
1	23026	2.669294	1
1	23027	2.6693316	0
1	23039	2.6704932	1
1	23040	2.6705308	0
1	23053	2.6706148	1
1	23056	2.6706524	0
1	23057	2.6706524	1
1	23061	2.67085	0
1	23121	2.672087	1
1	23122	2.6721246	0
1	23134	2.6732862	1
1	23135	2.6733238	0
1	23147	2.6744854	1
1	23148	2.674523	0
1	23160	2.6756846	1
1	23161	2.6757222	0
1	23173	2.6768838	1
1	23174	2.6769214	0
1	23186	2.678083	1
1	23187	2.6781206	0
1	23199	2.6792822	1
1	23200	2.6793198	0
1	23212	2.6804814	1
1	23213	2.680519	0
1	23225	2.6816806	1
1	23226	2.6817182	0
1	23238	2.6828798	1
1	23239	2.6829174	0
1	23251	2.684079	1
1	23252	2.6841166	0
1	23264	2.6852782	1
1	23265	2.6853158	0
1	23277	2.6864774	1
1	23278	2.686515	0
1	23290	2.6876766	1
1	23291	2.6877142	0
1	23303	2.6888758	1
1	23304	2.6889134	0
1	23316	2.690075	1
1	23317	2.6901126	0
1	23329	2.6912742	1
1	23330	2.6913118	0
1	23342	2.6924734	1
1	23343	2.692511	0
1	23356	2.692595	1
1	23359	2.6926326	0
1	23360	2.6926326	1
1	23364	2.6928302	0
1	23424	2.6940672	1
1	23425	2.6941048	0
1	23437	2.6952664	1
1	23438	2.695304	0
1	23450	2.6964656	1
1	23451	2.6965032	0
1	23463	2.6976648	1
1	23464	2.6977024	0
1	23476	2.698864	1
1	23477	2.6989016	0
1	23489	2.7000632	1
1	23490	2.7001008	0
1	23502	2.7012624	1
1	23503	2.7013	0
1	23515	2.7024616	1
1	23516	2.7024992	0
1	23528	2.7036608	1
1	23529	2.7036984	0
1	23541	2.70486	1
1	23542	2.7048976	0
1	23554	2.7060592	1
1	23555	2.7060968	0
1	23567	2.7072584	1
1	23568	2.707296	0
1	23580	2.7084576	1
1	23581	2.7084952	0
1	23593	2.7096568	1
1	23594	2.7096944	0
1	23606	2.710856	1
1	23607	2.7108936	0
1	23619	2.7120552	1
1	23620	2.7120928	0
1	23632	2.7132544	1
1	23633	2.713292	0
1	23645	2.7144536	1
1	23646	2.7144912	0
1	23659	2.7145752	1
1	23662	2.7146128	0
1	23663	2.7146128	1
1	23667	2.7148104	0
1	23727	2.7160474	1
1	23728	2.716085	0
1	23740	2.7172466	1
1	23741	2.7172842	0
1	23753	2.7184458	1
1	23754	2.7184834	0
1	23766	2.719645	1
1	23767	2.7196826	0
1	23779	2.7208442	1
1	23780	2.7208818	0
1	23792	2.7220434	1
1	23793	2.722081	0
1	23805	2.7232426	1
1	23806	2.7232802	0
1	23818	2.7244418	1
1	23819	2.7244794	0
1	23831	2.725641	1
1	23832	2.7256786	0
1	23844	2.7268402	1
1	23845	2.7268778	0
1	23857	2.7280394	1
1	23858	2.728077	0
1	23870	2.7292386	1
1	23871	2.7292762	0
1	23883	2.7304378	1
1	23884	2.7304754	0
1	23896	2.731637	1
1	23897	2.7316746	0
1	23909	2.7328362	1
1	23910	2.7328738	0
1	23922	2.7340354	1
1	23923	2.734073	0
1	23935	2.7352346	1
1	23936	2.7352722	0
1	23948	2.7364338	1
1	23949	2.7364714	0
1	23962	2.7365554	1
1	23965	2.736593	0
1	23966	2.736593	1
1	23970	2.7367906	0
1	24030	2.7380276	1
1	24031	2.7380652	0
1	24043	2.7392268	1
1	24044	2.7392644	0
1	24056	2.740426	1
1	24057	2.7404636	0
1	24069	2.7416252	1
1	24070	2.7416628	0
1	24082	2.7428244	1
1	24083	2.742862	0
1	24095	2.7440236	1
1	24096	2.7440612	0
1	24108	2.7452228	1
1	24109	2.7452604	0
1	24121	2.746422	1
1	24122	2.7464596	0
1	24134	2.7476212	1
1	24135	2.7476588	0
1	24147	2.7488204	1
1	24148	2.748858	0
1	24160	2.7500196	1
1	24161	2.7500572	0
1	24173	2.7512188	1
1	24174	2.7512564	0
1	24186	2.752418	1
1	24187	2.7524556	0
1	24199	2.7536172	1
1	24200	2.7536548	0
1	24212	2.7548164	1
1	24213	2.754854	0
1	24225	2.7560156	1
1	24226	2.7560532	0
1	24238	2.7572148	1
1	24239	2.7572524	0
1	24251	2.758414	1
1	24252	2.7584516	0
1	24265	2.7585356	1
1	24268	2.7585732	0
1	24269	2.7585732	1
1	24273	2.7587708	0
1	24333	2.7600078	1
1	24334	2.7600454	0
1	24346	2.761207	1
1	24347	2.7612446	0
1	24359	2.7624062	1
1	24360	2.7624438	0
1	24372	2.7636054	1
1	24373	2.763643	0
1	24385	2.7648046	1
1	24386	2.7648422	0
1	24398	2.7660038	1
1	24399	2.7660414	0
1	24411	2.767203	1
1	24412	2.7672406	0
1	24424	2.7684022	1
1	24425	2.7684398	0
1	24437	2.7696014	1
1	24438	2.769639	0
1	24450	2.7708006	1
1	24451	2.7708382	0
1	24463	2.7719998	1
1	24464	2.7720374	0
1	24476	2.773199	1
1	24477	2.7732366	0
1	24489	2.7743982	1
1	24490	2.7744358	0
1	24502	2.7755974	1
1	24503	2.775635	0
1	24515	2.7767966	1
1	24516	2.7768342	0
1	24528	2.7779958	1
1	24529	2.7780334	0
1	24541	2.779195	1
1	24542	2.7792326	0
1	24554	2.7803942	1
1	24555	2.7804318	0
1	24568	2.7805158	1
1	24571	2.7805534	0
1	24572	2.7805534	1
1	24576	2.780751	0
1	24636	2.781988	1
1	24637	2.7820256	0
1	24649	2.7831872	1
1	24650	2.7832248	0
1	24662	2.7843864	1
1	24663	2.784424	0
1	24675	2.7855856	1
1	24676	2.7856232	0
1	24688	2.7867848	1
1	24689	2.7868224	0
1	24701	2.787984	1
1	24702	2.7880216	0
1	24714	2.7891832	1
1	24715	2.7892208	0
1	24727	2.7903824	1
1	24728	2.79042	0
1	24740	2.7915816	1
1	24741	2.7916192	0
1	24753	2.7927808	1
1	24754	2.7928184	0
1	24766	2.79398	1
1	24767	2.7940176	0
1	24779	2.7951792	1
1	24780	2.7952168	0
1	24792	2.7963784	1
1	24793	2.796416	0
1	24805	2.7975776	1
1	24806	2.7976152	0
1	24818	2.7987768	1
1	24819	2.7988144	0
1	24831	2.799976	1
1	24832	2.8000136	0
1	24844	2.8011752	1
1	24845	2.8012128	0
1	24857	2.8023744	1
1	24858	2.802412	0
1	24871	2.802496	1
1	24874	2.8025336	0
1	24875	2.8025336	1
1	24879	2.8027312	0
1	24939	2.8039682	1
1	24940	2.8040058	0
1	24952	2.8051674	1
1	24953	2.805205	0
1	24965	2.8063666	1
1	24966	2.8064042	0
1	24978	2.8075658	1
1	24979	2.8076034	0
1	24991	2.808765	1
1	24992	2.8088026	0
1	25004	2.8099642	1
1	25005	2.8100018	0
1	25017	2.8111634	1
1	25018	2.811201	0
1	25030	2.8123626	1
1	25031	2.8124002	0
1	25043	2.8135618	1
1	25044	2.8135994	0
1	25056	2.814761	1
1	25057	2.8147986	0
1	25069	2.8159602	1
1	25070	2.8159978	0
1	25082	2.8171594	1
1	25083	2.817197	0
1	25095	2.8183586	1
1	25096	2.8183962	0
1	25108	2.8195578	1
1	25109	2.8195954	0
1	25121	2.820757	1
1	25122	2.8207946	0
1	25134	2.8219562	1
1	25135	2.8219938	0
1	25147	2.8231554	1
1	25148	2.823193	0
1	25160	2.8243546	1
1	25161	2.8243922	0
1	25174	2.8244762	1
1	25177	2.8245138	0
1	25178	2.8245138	1
1	25182	2.8247114	0
1	25242	2.8259484	1
1	25243	2.825986	0
1	25255	2.8271476	1
1	25256	2.8271852	0
1	25268	2.8283468	1
1	25269	2.8283844	0
1	25281	2.829546	1
1	25282	2.8295836	0
1	25294	2.8307452	1
1	25295	2.8307828	0
1	25307	2.8319444	1
1	25308	2.831982	0
1	25320	2.8331436	1
1	25321	2.8331812	0
1	25333	2.8343428	1
1	25334	2.8343804	0
1	25346	2.835542	1
1	25347	2.8355796	0
1	25359	2.8367412	1
1	25360	2.8367788	0
1	25372	2.8379404	1
1	25373	2.837978	0
1	25385	2.8391396	1
1	25386	2.8391772	0
1	25398	2.8403388	1
1	25399	2.8403764	0
1	25411	2.841538	1
1	25412	2.8415756	0
1	25424	2.8427372	1
1	25425	2.8427748	0
1	25437	2.8439364	1
1	25438	2.843974	0
1	25450	2.8451356	1
1	25451	2.8451732	0
1	25463	2.8463348	1
1	25464	2.8463724	0
1	25477	2.8464564	1
1	25480	2.846494	0
1	25481	2.846494	1
1	25485	2.8466916	0
1	25545	2.8479286	1
1	25546	2.8479662	0
1	25558	2.8491278	1
1	25559	2.8491654	0
1	25571	2.850327	1
1	25572	2.8503646	0
1	25584	2.8515262	1
1	25585	2.8515638	0
1	25597	2.8527254	1
1	25598	2.852763	0
1	25610	2.8539246	1
1	25611	2.8539622	0
1	25623	2.8551238	1
1	25624	2.8551614	0
1	25636	2.856323	1
1	25637	2.8563606	0
1	25649	2.8575222	1
1	25650	2.8575598	0
1	25662	2.8587214	1
1	25663	2.858759	0
1	25675	2.8599206	1
1	25676	2.8599582	0
1	25688	2.8611198	1
1	25689	2.8611574	0
1	25701	2.862319	1
1	25702	2.8623566	0
1	25714	2.8635182	1
1	25715	2.8635558	0
1	25727	2.8647174	1
1	25728	2.864755	0
1	25740	2.8659166	1
1	25741	2.8659542	0
1	25753	2.8671158	1
1	25754	2.8671534	0
1	25766	2.868315	1
1	25767	2.8683526	0
1	25780	2.8684366	1
1	25783	2.8684742	0
1	25784	2.8684742	1
1	25788	2.8686718	0
1	25848	2.8699088	1
1	25849	2.8699464	0
1	25861	2.871108	1
1	25862	2.8711456	0
1	25874	2.8723072	1
1	25875	2.8723448	0
1	25887	2.8735064	1
1	25888	2.873544	0
1	25900	2.8747056	1
1	25901	2.8747432	0
1	25913	2.8759048	1
1	25914	2.8759424	0
1	25926	2.877104	1
1	25927	2.8771416	0
1	25939	2.8783032	1
1	25940	2.8783408	0
1	25952	2.8795024	1
1	25953	2.87954	0
1	25965	2.8807016	1
1	25966	2.8807392	0
1	25978	2.8819008	1
1	25979	2.8819384	0
1	25991	2.8831	1
1	25992	2.8831376	0
1	26004	2.8842992	1
1	26005	2.8843368	0
1	26017	2.8854984	1
1	26018	2.885536	0
1	26030	2.8866976	1
1	26031	2.8867352	0
1	26043	2.8878968	1
1	26044	2.8879344	0
1	26056	2.889096	1
1	26057	2.8891336	0
1	26069	2.8902952	1
1	26070	2.8903328	0
1	26083	2.8904168	1
1	26086	2.8904544	0
1	26087	2.8904544	1
1	26091	2.890652	0
1	26151	2.891889	1
1	26152	2.8919266	0
1	26164	2.8930882	1
1	26165	2.8931258	0
1	26177	2.8942874	1
1	26178	2.894325	0
1	26190	2.8954866	1
1	26191	2.8955242	0
1	26203	2.8966858	1
1	26204	2.8967234	0
1	26216	2.897885	1
1	26217	2.8979226	0
1	26229	2.8990842	1
1	26230	2.8991218	0
1	26242	2.9002834	1
1	26243	2.900321	0
1	26255	2.9014826	1
1	26256	2.9015202	0
1	26268	2.9026818	1
1	26269	2.9027194	0
1	26281	2.903881	1
1	26282	2.9039186	0
1	26294	2.9050802	1
1	26295	2.9051178	0
1	26307	2.9062794	1
1	26308	2.906317	0
1	26320	2.9074786	1
1	26321	2.9075162	0
1	26333	2.9086778	1
1	26334	2.9087154	0
1	26346	2.909877	1
1	26347	2.9099146	0
1	26359	2.9110762	1
1	26360	2.9111138	0
1	26372	2.9122754	1
1	26373	2.912313	0
1	26386	2.912397	1
1	26389	2.9124346	0
1	26390	2.9124346	1
1	26394	2.9126322	0
1	26454	2.9138692	1
1	26455	2.9139068	0
1	26467	2.9150684	1
1	26468	2.915106	0
1	26480	2.9162676	1
1	26481	2.9163052	0
1	26493	2.9174668	1
1	26494	2.9175044	0
1	26506	2.918666	1
1	26507	2.9187036	0
1	26519	2.9198652	1
1	26520	2.9199028	0
1	26532	2.9210644	1
1	26533	2.921102	0
1	26545	2.9222636	1
1	26546	2.9223012	0
1	26558	2.9234628	1
1	26559	2.9235004	0
1	26571	2.924662	1
1	26572	2.9246996	0
1	26584	2.9258612	1
1	26585	2.9258988	0
1	26597	2.9270604	1
1	26598	2.927098	0
1	26610	2.9282596	1
1	26611	2.9282972	0
1	26623	2.9294588	1
1	26624	2.9294964	0
1	26636	2.930658	1
1	26637	2.9306956	0
1	26649	2.9318572	1
1	26650	2.9318948	0
1	26662	2.9330564	1
1	26663	2.933094	0
1	26675	2.9342556	1
1	26676	2.9342932	0
1	26689	2.9343772	1
1	26692	2.9344148	0
1	26693	2.9344148	1
1	26697	2.9346124	0
1	26757	2.9358494	1
1	26758	2.935887	0
1	26770	2.9370486	1
1	26771	2.9370862	0
1	26783	2.9382478	1
1	26784	2.9382854	0
1	26796	2.939447	1
1	26797	2.9394846	0
1	26809	2.9406462	1
1	26810	2.9406838	0
1	26822	2.9418454	1
[...]
48	33743	3.4426309	3066624
48	33756	3.4438301	3068076
48	33769	3.4450293	3069528
48	33782	3.4462285	3070980
48	33795	3.4474277	3072432
48	33808	3.4486269	3073884
48	33821	3.4498261	3075336
48	33834	3.4510253	3076788
48	33847	3.4522245	3078240
48	33860	3.4534237	3079692
48	33873	3.4546229	3081144
48	33886	3.4558221	3082596
48	33899	3.4570213	3084048
48	33912	3.4582205	3085500
48	33925	3.4594197	3086952
48	33938	3.4606189	3088404
48	33951	3.4618181	3089856
48	33968	3.4619397	3091308
48	34033	3.4634119	3092760
48	34046	3.4646111	3094212
48	34059	3.4658103	3095664
48	34072	3.4670095	3097116
48	34085	3.4682087	3098568
48	34098	3.4694079	3100020
48	34111	3.4706071	3101472
48	34124	3.4718063	3102924
48	34137	3.4730055	3104376
48	34150	3.4742047	3105828
48	34163	3.4754039	3107280
48	34176	3.4766031	3108732
48	34189	3.4778023	3110184
48	34202	3.4790015	3111636
48	34215	3.4802007	3113088
48	34228	3.4813999	3114540
48	34241	3.4825991	3115992
48	34254	3.4837983	3117444
48	34271	3.4839199	3118896
48	34336	3.4853921	3120348
48	34349	3.4865913	3121800
48	34362	3.4877905	3123252
48	34375	3.4889897	3124704
48	34388	3.4901889	3126156
48	34401	3.4913881	3127608
48	34414	3.4925873	3129060
48	34427	3.4937865	3130512
48	34440	3.4949857	3131964
48	34453	3.4961849	3133416
48	34466	3.4973841	3134868
48	34479	3.4985833	3136320
48	34492	3.4997825	3137772
48	34505	3.5009817	3139224
48	34518	3.5021809	3140676
48	34531	3.5033801	3142128
48	34544	3.5045793	3143580
48	34557	3.5057785	3145032
48	34574	3.5059001	3146484
48	34639	3.5073723	3147936
48	34652	3.5085715	3149388
48	34665	3.5097707	3150840
48	34678	3.5109699	3152292
48	34691	3.5121691	3153744
48	34704	3.5133683	3155196
48	34717	3.5145675	3156648
48	34730	3.5157667	3158100
48	34743	3.5169659	3159552
48	34756	3.5181651	3161004
48	34769	3.5193643	3162456
48	34782	3.5205635	3163908
48	34795	3.5217627	3165360
48	34808	3.5229619	3166812
48	34821	3.5241611	3168264
48	34834	3.5253603	3169716
48	34847	3.5265595	3171168
48	34860	3.5277587	3172620
48	34877	3.5278803	3174072
48	34942	3.5293525	3175524
48	34955	3.5305517	3176976
48	34968	3.5317509	3178428
48	34981	3.5329501	3179880
48	34994	3.5341493	3181332
48	35007	3.5353485	3182784
48	35020	3.5365477	3184236
48	35033	3.5377469	3185688
48	35046	3.5389461	3187140
48	35059	3.5401453	3188592
48	35072	3.5413445	3190044
48	35085	3.5425437	3191496
48	35098	3.5437429	3192948
48	35111	3.5449421	3194400
48	35124	3.5461413	3195852
48	35137	3.5473405	3197304
48	35150	3.5485397	3198756
48	35163	3.5497389	3200208
48	35180	3.5498605	3201660
48	35245	3.5513327	3203112
48	35258	3.5525319	3204564
48	35271	3.5537311	3206016
48	35284	3.5549303	3207468
48	35297	3.5561295	3208920
48	35310	3.5573287	3210372
48	35323	3.5585279	3211824
48	35336	3.5597271	3213276
48	35349	3.5609263	3214728
48	35362	3.5621255	3216180
48	35375	3.5633247	3217632
48	35388	3.5645239	3219084
48	35401	3.5657231	3220536
48	35414	3.5669223	3221988
48	35427	3.5681215	3223440
48	35440	3.5693207	3224892
48	35453	3.5705199	3226344
48	35466	3.5717191	3227796
48	35483	3.5718407	3229248
48	35548	3.5733129	3230700
48	35561	3.5745121	3232152
48	35574	3.5757113	3233604
48	35587	3.5769105	3235056
48	35600	3.5781097	3236508
48	35613	3.5793089	3237960
48	35626	3.5805081	3239412
48	35639	3.5817073	3240864
48	35652	3.5829065	3242316
48	35665	3.5841057	3243768
48	35678	3.5853049	3245220
48	35691	3.5865041	3246672
48	35704	3.5877033	3248124
48	35717	3.5889025	3249576
48	35730	3.5901017	3251028
48	35743	3.5913009	3252480
48	35756	3.5925001	3253932
48	35769	3.5936993	3255384
48	35786	3.5938209	3256836
48	35851	3.5952931	3258288
48	35864	3.5964923	3259740
48	35877	3.5976915	3261192
48	35890	3.5988907	3262644
48	35903	3.6000899	3264096
48	35916	3.6012891	3265548
48	35929	3.6024883	3267000
48	35942	3.6036875	3268452
48	35955	3.6048867	3269904
48	35968	3.6060859	3271356
48	35981	3.6072851	3272808
48	35994	3.6084843	3274260
48	36007	3.6096835	3275712
48	36020	3.6108827	3277164
48	36033	3.6120819	3278616
48	36046	3.6132811	3280068
48	36059	3.6144803	3281520
48	36072	3.6156795	3282972
48	36089	3.6158011	3284424
48	36154	3.6172733	3285876
48	36167	3.6184725	3287328
48	36180	3.6196717	3288780
48	36193	3.6208709	3290232
48	36206	3.6220701	3291684
48	36219	3.6232693	3293136
48	36232	3.6244685	3294588
48	36245	3.6256677	3296040
48	36258	3.6268669	3297492
48	36271	3.6280661	3298944
48	36284	3.6292653	3300396
48	36297	3.6304645	3301848
48	36310	3.6316637	3303300
48	36323	3.6328629	3304752
48	36336	3.6340621	3306204
48	36349	3.6352613	3307656
48	36362	3.6364605	3309108
48	36375	3.6376597	3310560
48	36392	3.6377813	3312012
48	36457	3.6392535	3313464
48	36470	3.6404527	3314916
48	36483	3.6416519	3316368
48	36496	3.6428511	3317820
48	36509	3.6440503	3319272
48	36522	3.6452495	3320724
48	36535	3.6464487	3322176
48	36548	3.6476479	3323628
48	36561	3.6488471	3325080
48	36574	3.6500463	3326532
48	36587	3.6512455	3327984
48	36600	3.6524447	3329436
48	36613	3.6536439	3330888
48	36626	3.6548431	3332340
48	36639	3.6560423	3333792
48	36652	3.6572415	3335244
48	36665	3.6584407	3336696
48	36678	3.6596399	3338148
48	36695	3.6597615	3339600
48	36760	3.6612337	3341052
48	36773	3.6624329	3342504
48	36786	3.6636321	3343956
48	36799	3.6648313	3345408
48	36812	3.6660305	3346860
48	36825	3.6672297	3348312
48	36838	3.6684289	3349764
48	36851	3.6696281	3351216
48	36864	3.6708273	3352668
48	36877	3.6720265	3354120
48	36890	3.6732257	3355572
48	36903	3.6744249	3357024
48	36916	3.6756241	3358476
48	36929	3.6768233	3359928
48	36942	3.6780225	3361380
48	36955	3.6792217	3362832
48	36968	3.6804209	3364284
48	36981	3.6816201	3365736
48	36998	3.6817417	3367188
48	37063	3.6832139	3368640
48	37076	3.6844131	3370092
48	37089	3.6856123	3371544
48	37102	3.6868115	3372996
48	37115	3.6880107	3374448
48	37128	3.6892099	3375900
48	37141	3.6904091	3377352
48	37154	3.6916083	3378804
48	37167	3.6928075	3380256
48	37180	3.6940067	3381708
48	37193	3.6952059	3383160
48	37206	3.6964051	3384612
48	37219	3.6976043	3386064
48	37232	3.6988035	3387516
48	37245	3.7000027	3388968
48	37258	3.7012019	3390420
48	37271	3.7024011	3391872
48	37284	3.7036003	3393324
48	37301	3.7037219	3394776
48	37366	3.7051941	3396228
48	37379	3.7063933	3397680
48	37392	3.7075925	3399132
48	37405	3.7087917	3400584
48	37418	3.7099909	3402036
48	37431	3.7111901	3403488
48	37444	3.7123893	3404940
48	37457	3.7135885	3406392
48	37470	3.7147877	3407844
48	37483	3.7159869	3409296
48	37496	3.7171861	3410748
48	37509	3.7183853	3412200
48	37522	3.7195845	3413652
48	37535	3.7207837	3415104
48	37548	3.7219829	3416556
48	37561	3.7231821	3418008
48	37574	3.7243813	3419460
48	37587	3.7255805	3420912
48	37604	3.7257021	3422364
48	37669	3.7271743	3423816
48	37682	3.7283735	3425268
48	37695	3.7295727	3426720
48	37708	3.7307719	3428172
48	37721	3.7319711	3429624
48	37734	3.7331703	3431076
48	37747	3.7343695	3432528
48	37760	3.7355687	3433980
48	37773	3.7367679	3435432
48	37786	3.7379671	3436884
48	37799	3.7391663	3438336
48	37812	3.7403655	3439788
48	37825	3.7415647	3441240
48	37838	3.7427639	3442692
48	37851	3.7439631	3444144
48	37864	3.7451623	3445596
48	37877	3.7463615	3447048
48	37890	3.7475607	3448500
48	37907	3.7476823	3449952
48	37972	3.7491545	3451404
48	37985	3.7503537	3452856
48	37998	3.7515529	3454308
48	38011	3.7527521	3455760
48	38024	3.7539513	3457212
48	38037	3.7551505	3458664
48	38050	3.7563497	3460116
48	38063	3.7575489	3461568
48	38076	3.7587481	3463020
48	38089	3.7599473	3464472
48	38102	3.7611465	3465924
48	38115	3.7623457	3467376
48	38128	3.7635449	3468828
48	38141	3.7647441	3470280
48	38154	3.7659433	3471732
48	38167	3.7671425	3473184
48	38180	3.7683417	3474636
48	38193	3.7695409	3476088
48	38210	3.7696625	3477540
48	38275	3.7711347	3478992
48	38288	3.7723339	3480444
48	38301	3.7735331	3481896
48	38314	3.7747323	3483348
48	38327	3.7759315	3484800
48	38340	3.7771307	3486252
48	38353	3.7783299	3487704
48	38366	3.7795291	3489156
48	38379	3.7807283	3490608
48	38392	3.7819275	3492060
48	38405	3.7831267	3493512
48	38418	3.7843259	3494964
48	38431	3.7855251	3496416
48	38444	3.7867243	3497868
48	38457	3.7879235	3499320
48	38470	3.7891227	3500772
48	38483	3.7903219	3502224
48	38496	3.7915211	3503676
48	38513	3.7916427	3505128
48	38578	3.7931149	3506580
48	38591	3.7943141	3508032
48	38604	3.7955133	3509484
48	38617	3.7967125	3510936
48	38630	3.7979117	3512388
48	38643	3.7991109	3513840
48	38656	3.8003101	3515292
48	38669	3.8015093	3516744
48	38682	3.8027085	3518196
48	38695	3.8039077	3519648
48	38708	3.8051069	3521100
48	38721	3.8063061	3522552
48	38734	3.8075053	3524004
48	38747	3.8087045	3525456
48	38760	3.8099037	3526908
48	38773	3.8111029	3528360
48	38786	3.8123021	3529812
48	38799	3.8135013	3531264
48	38816	3.8136229	3532716
48	38881	3.8150951	3534168
48	38894	3.8162943	3535620
48	38907	3.8174935	3537072
48	38920	3.8186927	3538524
48	38933	3.8198919	3539976
48	38946	3.8210911	3541428
48	38959	3.8222903	3542880
48	38972	3.8234895	3544332
48	38985	3.8246887	3545784
48	38998	3.8258879	3547236
48	39011	3.8270871	3548688
48	39024	3.8282863	3550140
48	39037	3.8294855	3551592
48	39050	3.8306847	3553044
48	39063	3.8318839	3554496
48	39076	3.8330831	3555948
48	39089	3.8342823	3557400
48	39102	3.8354815	3558852
48	39119	3.8356031	3560304
48	39184	3.8370753	3561756
48	39197	3.8382745	3563208
48	39210	3.8394737	3564660
48	39223	3.8406729	3566112
48	39236	3.8418721	3567564
48	39249	3.8430713	3569016
48	39262	3.8442705	3570468
48	39275	3.8454697	3571920
48	39288	3.8466689	3573372
48	39301	3.8478681	3574824
48	39314	3.8490673	3576276
48	39327	3.8502665	3577728
48	39340	3.8514657	3579180
48	39353	3.8526649	3580632
48	39366	3.8538641	3582084
48	39379	3.8550633	3583536
48	39392	3.8562625	3584988
48	39405	3.8574617	3586440
48	39422	3.8575833	3587892
48	39487	3.8590555	3589344
48	39500	3.8602547	3590796
48	39513	3.8614539	3592248
48	39526	3.8626531	3593700
48	39539	3.8638523	3595152
48	39552	3.8650515	3596604
48	39565	3.8662507	3598056
48	39578	3.8674499	3599508
48	39591	3.8686491	3600960
48	39604	3.8698483	3602412
48	39617	3.8710475	3603864
48	39630	3.8722467	3605316
48	39643	3.8734459	3606768
48	39656	3.8746451	3608220
48	39669	3.8758443	3609672
48	39682	3.8770435	3611124
48	39695	3.8782427	3612576
48	39708	3.8794419	3614028
48	39725	3.8795635	3615480
48	39790	3.8810357	3616932
48	39803	3.8822349	3618384
48	39816	3.8834341	3619836
48	39829	3.8846333	3621288
48	39842	3.8858325	3622740
48	39855	3.8870317	3624192
48	39868	3.8882309	3625644
48	39881	3.8894301	3627096
48	39894	3.8906293	3628548
48	39907	3.8918285	3630000
48	39920	3.8930277	3631452
48	39933	3.8942269	3632904
48	39946	3.8954261	3634356
48	39959	3.8966253	3635808
48	39972	3.8978245	3637260
48	39985	3.8990237	3638712
48	39998	3.9002229	3640164
48	40011	3.9014221	3641616
48	40028	3.9015437	3643068
48	40093	3.9030159	3644520
48	40106	3.9042151	3645972
48	40119	3.9054143	3647424
48	40132	3.9066135	3648876
48	40145	3.9078127	3650328
48	40158	3.9090119	3651780
48	40171	3.9102111	3653232
48	40184	3.9114103	3654684
48	40197	3.9126095	3656136
48	40210	3.9138087	3657588
48	40223	3.9150079	3659040
48	40236	3.9162071	3660492
48	40249	3.9174063	3661944
48	40262	3.9186055	3663396
48	40275	3.9198047	3664848
48	40288	3.9210039	3666300
48	40301	3.9222031	3667752
48	40314	3.9234023	3669204
48	40331	3.9235239	3670656
48	40396	3.9249961	3672108
48	40409	3.9261953	3673560
48	40422	3.9273945	3675012
48	40435	3.9285937	3676464
48	40448	3.9297929	3677916
48	40461	3.9309921	3679368
48	40474	3.9321913	3680820
48	40487	3.9333905	3682272
48	40500	3.9345897	3683724
48	40513	3.9357889	3685176
48	40526	3.9369881	3686628
48	40539	3.9381873	3688080
48	40552	3.9393865	3689532
48	40565	3.9405857	3690984
48	40578	3.9417849	3692436
48	40591	3.9429841	3693888
48	40604	3.9441833	3695340
48	40617	3.9453825	3696792
48	40634	3.9455041	3698244
48	40699	3.9469763	3699696
48	40712	3.9481755	3701148
48	40725	3.9493747	3702600
48	40738	3.9505739	3704052
48	40751	3.9517731	3705504
48	40764	3.9529723	3706956
48	40777	3.9541715	3708408
48	40790	3.9553707	3709860
48	40803	3.9565699	3711312
48	40816	3.9577691	3712764
48	40829	3.9589683	3714216
48	40842	3.9601675	3715668
48	40855	3.9613667	3717120
48	40868	3.9625659	3718572
48	40881	3.9637651	3720024
48	40894	3.9649643	3721476
48	40907	3.9661635	3722928
48	40920	3.9673627	3724380
48	40937	3.9674843	3725832
48	41002	3.9689565	3727284
48	41015	3.9701557	3728736
48	41028	3.9713549	3730188
48	41041	3.9725541	3731640
48	41054	3.9737533	3733092
48	41067	3.9749525	3734544
48	41080	3.9761517	3735996
48	41093	3.9773509	3737448
48	41106	3.9785501	3738900
48	41119	3.9797493	3740352
48	41132	3.9809485	3741804
48	41145	3.9821477	3743256
48	41158	3.9833469	3744708
48	41171	3.9845461	3746160
48	41184	3.9857453	3747612
48	41197	3.9869445	3749064
48	41210	3.9881437	3750516
48	41223	3.9893429	3751968
48	41240	3.9894645	3753420
48	41305	3.9909367	3754872
48	41318	3.9921359	3756324
48	41331	3.9933351	3757776
48	41344	3.9945343	3759228
48	41357	3.9957335	3760680
48	41370	3.9969327	3762132
48	41383	3.9981319	3763584
48	41396	3.9993311	3765036
48	41409	4.0005303	3766488
48	41422	4.0017295	3767940
48	41435	4.0029287	3769392
48	41448	4.0041279	3770844
48	41461	4.0053271	3772296
48	41474	4.0065263	3773748
48	41487	4.0077255	3775200
48	41500	4.0089247	3776652
48	41513	4.0101239	3778104
48	41526	4.0113231	3779556
48	41543	4.0114447	3781008
48	41608	4.0129169	3782460
48	41621	4.0141161	3783912
48	41634	4.0153153	3785364
48	41647	4.0165145	3786816
48	41660	4.0177137	3788268
48	41673	4.0189129	3789720
48	41686	4.0201121	3791172
48	41699	4.0213113	3792624
48	41712	4.0225105	3794076
48	41725	4.0237097	3795528
48	41738	4.0249089	3796980
48	41751	4.0261081	3798432
48	41764	4.0273073	3799884
48	41777	4.0285065	3801336
48	41790	4.0297057	3802788
48	41803	4.0309049	3804240
48	41816	4.0321041	3805692
48	41829	4.0333033	3807144
48	41846	4.0334249	3808596
48	41911	4.0348971	3810048
48	41924	4.0360963	3811500
48	41937	4.0372955	3812952
48	41950	4.0384947	3814404
48	41963	4.0396939	3815856
48	41976	4.0408931	3817308
48	41989	4.0420923	3818760
48	42002	4.0432915	3820212
48	42015	4.0444907	3821664
48	42028	4.0456899	3823116
48	42041	4.0468891	3824568
48	42054	4.0480883	3826020
48	42067	4.0492875	3827472
48	42080	4.0504867	3828924
48	42093	4.0516859	3830376
48	42106	4.0528851	3831828
48	42119	4.0540843	3833280
48	42132	4.0552835	3834732
48	42149	4.0554051	3836184
48	42214	4.0568773	3837636
48	42227	4.0580765	3839088
48	42240	4.0592757	3840540
48	42253	4.0604749	3841992
48	42266	4.0616741	3843444
48	42279	4.0628733	3844896
48	42292	4.0640725	3846348
48	42305	4.0652717	3847800
48	42318	4.0664709	3849252
48	42331	4.0676701	3850704
48	42344	4.0688693	3852156
48	42357	4.0700685	3853608
48	42370	4.0712677	3855060
48	42383	4.0724669	3856512
48	42396	4.0736661	3857964
48	42409	4.0748653	3859416
48	42422	4.0760645	3860868
48	42435	4.0772637	3862320
48	42452	4.0773853	3863772
48	42517	4.0788575	3865224
48	42530	4.0800567	3866676
48	42543	4.0812559	3868128
48	42556	4.0824551	3869580
48	42569	4.0836543	3871032
48	42582	4.0848535	3872484
48	42595	4.0860527	3873936
48	42608	4.0872519	3875388
48	42621	4.0884511	3876840
48	42634	4.0896503	3878292
48	42647	4.0908495	3879744
48	42660	4.0920487	3881196
48	42673	4.0932479	3882648
48	42686	4.0944471	3884100
48	42699	4.0956463	3885552
48	42712	4.0968455	3887004
48	42725	4.0980447	3888456
48	42738	4.0992439	3889908
48	42755	4.0993655	3891360
48	42820	4.1008377	3892812
48	42833	4.1020369	3894264
48	42846	4.1032361	3895716
48	42859	4.1044353	3897168
48	42872	4.1056345	3898620
48	42885	4.1068337	3900072
48	42898	4.1080329	3901524
48	42911	4.1092321	3902976
48	42924	4.1104313	3904428
48	42937	4.1116305	3905880
48	42950	4.1128297	3907332
48	42963	4.1140289	3908784
48	42976	4.1152281	3910236
48	42989	4.1164273	3911688
48	43002	4.1176265	3913140
48	43015	4.1188257	3914592
48	43028	4.1200249	3916044
48	43041	4.1212241	3917496
48	43058	4.1213457	3918948
48	43123	4.1228179	3920400
48	43136	4.1240171	3921852
48	43149	4.1252163	3923304
48	43162	4.1264155	3924756
48	43175	4.1276147	3926208
48	43188	4.1288139	3927660
48	43201	4.1300131	3929112
48	43214	4.1312123	3930564
48	43227	4.1324115	3932016
48	43240	4.1336107	3933468
48	43253	4.1348099	3934920
48	43266	4.1360091	3936372
48	43279	4.1372083	3937824
48	43292	4.1384075	3939276
48	43305	4.1396067	3940728
48	43318	4.1408059	3942180
48	43331	4.1420051	3943632
48	43344	4.1432043	3945084
48	43361	4.1433259	3946536
48	43426	4.1447981	3947988
48	43439	4.1459973	3949440
48	43452	4.1471965	3950892
48	43465	4.1483957	3952344
48	43478	4.1495949	3953796
48	43491	4.1507941	3955248
48	43504	4.1519933	3956700
48	43517	4.1531925	3958152
48	43530	4.1543917	3959604
48	43543	4.1555909	3961056
48	43556	4.1567901	3962508
48	43569	4.1579893	3963960
48	43582	4.1591885	3965412
48	43595	4.1603877	3966864
48	43608	4.1615869	3968316
48	43621	4.1627861	3969768
48	43634	4.1639853	3971220
48	43647	4.1651845	3972672
48	43664	4.1653061	3974124
48	43729	4.1667783	3975576
48	43742	4.1679775	3977028
48	43755	4.1691767	3978480
48	43768	4.1703759	3979932
48	43781	4.1715751	3981384
48	43794	4.1727743	3982836
48	43807	4.1739735	3984288
48	43820	4.1751727	3985740
48	43833	4.1763719	3987192
48	43846	4.1775711	3988644
48	43859	4.1787703	3990096
48	43872	4.1799695	3991548
48	43885	4.1811687	3993000
48	43898	4.1823679	3994452
48	43911	4.1835671	3995904
48	43924	4.1847663	3997356
48	43937	4.1859655	3998808
48	43950	4.1871647	4000260
48	43967	4.1872863	4001712
48	44032	4.1887585	4003164
48	44045	4.1899577	4004616
48	44058	4.1911569	4006068
48	44071	4.1923561	4007520
48	44084	4.1935553	4008972
48	44097	4.1947545	4010424
48	44110	4.1959537	4011876
48	44123	4.1971529	4013328
48	44136	4.1983521	4014780
48	44149	4.1995513	4016232
48	44162	4.2007505	4017684
48	44175	4.2019497	4019136
48	44188	4.2031489	4020588
48	44201	4.2043481	4022040
48	44214	4.2055473	4023492
48	44227	4.2067465	4024944
48	44240	4.2079457	4026396
48	44253	4.2091449	4027848
48	44270	4.2092665	4029300
48	44335	4.2107387	4030752
48	44348	4.2119379	4032204
48	44361	4.2131371	4033656
48	44374	4.2143363	4035108
48	44387	4.2155355	4036560
48	44400	4.2167347	4038012
48	44413	4.2179339	4039464
48	44426	4.2191331	4040916
48	44439	4.2203323	4042368
48	44452	4.2215315	4043820
48	44465	4.2227307	4045272
48	44478	4.2239299	4046724
48	44491	4.2251291	4048176
48	44504	4.2263283	4049628
48	44517	4.2275275	4051080
48	44530	4.2287267	4052532
48	44543	4.2299259	4053984
48	44556	4.2311251	4055436
48	44573	4.2312467	4056888
48	44638	4.2327189	4058340
48	44651	4.2339181	4059792
48	44664	4.2351173	4061244
48	44677	4.2363165	4062696
48	44690	4.2375157	4064148
48	44703	4.2387149	4065600
48	44716	4.2399141	4067052
48	44729	4.2411133	4068504
48	44742	4.2423125	4069956
48	44755	4.2435117	4071408
48	44768	4.2447109	4072860
48	44781	4.2459101	4074312
48	44794	4.2471093	4075764
48	44807	4.2483085	4077216
48	44820	4.2495077	4078668
48	44833	4.2507069	4080120
48	44846	4.2519061	4081572
48	44859	4.2531053	4083024
48	44876	4.2532269	4084476
48	44941	4.2546991	4085928
48	44954	4.2558983	4087380
48	44967	4.2570975	4088832
48	44980	4.2582967	4090284
48	44993	4.2594959	4091736
48	45006	4.2606951	4093188
48	45019	4.2618943	4094640
48	45032	4.2630935	4096092
48	45045	4.2642927	4097544
48	45058	4.2654919	4098996
48	45071	4.2666911	4100448
48	45084	4.2678903	4101900
48	45097	4.2690895	4103352
48	45110	4.2702887	4104804
48	45123	4.2714879	4106256
48	45136	4.2726871	4107708
48	45149	4.2738863	4109160
48	45162	4.2750855	4110612
48	45179	4.2752071	4112064
48	45244	4.2766793	4113516
48	45257	4.2778785	4114968
48	45270	4.2790777	4116420
48	45283	4.2802769	4117872
48	45296	4.2814761	4119324
48	45309	4.2826753	4120776
48	45322	4.2838745	4122228
48	45335	4.2850737	4123680
48	45348	4.2862729	4125132
48	45361	4.2874721	4126584
48	45374	4.2886713	4128036
48	45387	4.2898705	4129488
48	45400	4.2910697	4130940
48	45413	4.2922689	4132392
48	45426	4.2934681	4133844
48	45439	4.2946673	4135296
48	45452	4.2958665	4136748
48	45465	4.2970657	4138200
48	45477	4.2971873	4139652

